Program Version,EnergyPlus, Version 8.6.0-198c6a3cff, YMD=2018.12.24 22:52,IDD_Version 8.6.0
Var Type (reported time step),Var Report Type,Variable Name [Units]
Zone,Meter,Electricity:Facility [J]
Zone,Meter,Electricity:Building [J]
Zone,Meter,Electricity:Zone:LEVEL 1:2 ROOM [J]
Zone,Meter,InteriorLights:Electricity [J]
Zone,Meter,InteriorLights:Electricity:Zone:LEVEL 1:2 ROOM [J]
Zone,Meter,General:InteriorLights:Electricity [J]
Zone,Meter,Electricity:Zone:LEVEL 1:1 ROOM [J]
Zone,Meter,InteriorLights:Electricity:Zone:LEVEL 1:1 ROOM [J]
Zone,Meter,Electricity:Zone:LEVEL 1:3 ROOM [J]
Zone,Meter,InteriorLights:Electricity:Zone:LEVEL 1:3 ROOM [J]
Zone,Meter,Electricity:Zone:LEVEL 1:4 ROOM [J]
Zone,Meter,InteriorLights:Electricity:Zone:LEVEL 1:4 ROOM [J]
Zone,Meter,InteriorEquipment:Electricity [J]
Zone,Meter,InteriorEquipment:Electricity:Zone:LEVEL 1:2 ROOM [J]
Zone,Meter,General:InteriorEquipment:Electricity [J]
Zone,Meter,InteriorEquipment:Electricity:Zone:LEVEL 1:1 ROOM [J]
Zone,Meter,InteriorEquipment:Electricity:Zone:LEVEL 1:3 ROOM [J]
Zone,Meter,InteriorEquipment:Electricity:Zone:LEVEL 1:4 ROOM [J]
Zone,Meter,EnergyTransfer:Facility [J]
Zone,Meter,EnergyTransfer:Building [J]
Zone,Meter,EnergyTransfer:Zone:LEVEL 1:2 ROOM [J]
Zone,Meter,Heating:EnergyTransfer [J]
Zone,Meter,Heating:EnergyTransfer:Zone:LEVEL 1:2 ROOM [J]
Zone,Meter,Cooling:EnergyTransfer [J]
Zone,Meter,Cooling:EnergyTransfer:Zone:LEVEL 1:2 ROOM [J]
Zone,Meter,EnergyTransfer:Zone:LEVEL 1:1 ROOM [J]
Zone,Meter,Heating:EnergyTransfer:Zone:LEVEL 1:1 ROOM [J]
Zone,Meter,Cooling:EnergyTransfer:Zone:LEVEL 1:1 ROOM [J]
Zone,Meter,EnergyTransfer:Zone:LEVEL 1:3 ROOM [J]
Zone,Meter,Heating:EnergyTransfer:Zone:LEVEL 1:3 ROOM [J]
Zone,Meter,Cooling:EnergyTransfer:Zone:LEVEL 1:3 ROOM [J]
Zone,Meter,EnergyTransfer:Zone:LEVEL 1:4 ROOM [J]
Zone,Meter,Heating:EnergyTransfer:Zone:LEVEL 1:4 ROOM [J]
Zone,Meter,Cooling:EnergyTransfer:Zone:LEVEL 1:4 ROOM [J]
Zone,Meter,ElectricityPurchased:Facility [J]
Zone,Meter,ElectricityPurchased:Plant [J]
Zone,Meter,Cogeneration:ElectricityPurchased [J]
Zone,Meter,ElectricitySurplusSold:Facility [J]
Zone,Meter,ElectricitySurplusSold:Plant [J]
Zone,Meter,Cogeneration:ElectricitySurplusSold [J]
Zone,Meter,ElectricityNet:Facility [J]
Zone,Meter,ElectricityNet:Plant [J]
Zone,Meter,Cogeneration:ElectricityNet [J]
Zone,Meter,EnergyTransfer:HVAC [J]
Zone,Meter,CoolingCoils:EnergyTransfer [J]
Zone,Meter,PlantLoopCoolingDemand:Facility [J]
Zone,Meter,PlantLoopCoolingDemand:HVAC [J]
Zone,Meter,CoolingCoils:PlantLoopCoolingDemand [J]
Zone,Meter,Electricity:HVAC [J]
Zone,Meter,Fans:Electricity [J]
Zone,Meter,General:Fans:Electricity [J]
Zone,Meter,Electricity:Plant [J]
Zone,Meter,Cooling:Electricity [J]
Zone,Meter,EnergyTransfer:Plant [J]
Zone,Meter,Chillers:EnergyTransfer [J]
Zone,Meter,HeatRejection:EnergyTransfer [J]
Zone,Meter,HeatRejection:Electricity [J]
Zone,Meter,Water:Facility [m3]
Zone,Meter,Water:Plant [m3]
Zone,Meter,HeatRejection:Water [m3]
Zone,Meter,MainsWater:Facility [m3]
Zone,Meter,MainsWater:Plant [m3]
Zone,Meter,HeatRejection:MainsWater [m3]
Zone,Meter,Pumps:Electricity [J]
Zone,Meter,Carbon Equivalent:Facility [kg]
Zone,Meter,CarbonEquivalentEmissions:Carbon Equivalent [kg]
