Program Version,EnergyPlus, Version 8.6.0-198c6a3cff, YMD=2018.12.24 22:52
! This file shows details about the branches, nodes, and other
! elements of the flow connections.
! This file is intended for use in "debugging" potential problems
! that may also be detected by the program, but may be more easily
! identified by "eye".
! This file is also intended to support software which draws a
! schematic diagram of the HVAC system.
! ===============================================================
! #Nodes,<Number of Unique Nodes>
 #Nodes,57
! <Node>,<NodeNumber>,<Node Name>,<Node Fluid Type>,<# Times Node Referenced After Definition>
 Node,1,LEVEL 1 SUPPLY FAN OUTLET,Air,6
 Node,2,LEVEL 1:2 ROOM ZONE EQUIP INLET,Air,2
 Node,3,LEVEL 1:1 ROOM ZONE EQUIP INLET,Air,2
 Node,4,LEVEL 1:3 ROOM ZONE EQUIP INLET,Air,2
 Node,5,LEVEL 1:4 ROOM ZONE EQUIP INLET,Air,2
 Node,6,CHILLED WATER LOOP CHILLED WATER SUPPLY OUTLET,Water,5
 Node,7,CONDENSER WATER LOOP CONDENSER WATER SUPPLY OUTLET,Water,5
 Node,8,LEVEL 1 COOLING COIL OUTLET,Air,7
 Node,9,LEVEL 1 MIXED AIR OUTLET,Air,6
 Node,10,CHILLER% CHILLED WATER INLET,Water,1
 Node,11,CHILLER% CHILLED WATER OUTLET,Water,2
 Node,12,CHILLER% CONDENSER WATER INLET,Water,1
 Node,13,CHILLER% CONDENSER WATER OUTLET,Water,1
 Node,14,TOWER% CONDENSER WATER INLET,Water,1
 Node,15,TOWER% CONDENSER WATER OUTLET,Water,1
 Node,16,CHILLED WATER LOOP CHILLED WATER SUPPLY BYPASS INLET,Water,1
 Node,17,CHILLED WATER LOOP CHILLED WATER SUPPLY BYPASS OUTLET,Water,1
 Node,18,CHILLED WATER LOOP CHILLED WATER SUPPLY INLET,Water,2
 Node,19,CHILLED WATER LOOP CHILLED WATER PRIMARY PUMP OUTLET,Water,1
 Node,20,CHILLED WATER LOOP CHILLED WATER SUPPLY OUTLET PIPE INLET,Water,1
 Node,21,CHILLED WATER LOOP CHILLED WATER DEMAND INLET,Water,2
 Node,22,CHILLED WATER LOOP CHILLED WATER SECONDARY PUMP OUTLET,Water,1
 Node,23,CHILLED WATER LOOP CHILLED WATER DEMAND BYPASS INLET,Water,1
 Node,24,CHILLED WATER LOOP CHILLED WATER DEMAND BYPASS OUTLET,Water,1
 Node,25,CHILLED WATER LOOP CHILLED WATER DEMAND OUTLET PIPE INLET,Water,1
 Node,26,CHILLED WATER LOOP CHILLED WATER DEMAND OUTLET,Water,2
 Node,27,CONDENSER WATER LOOP CONDENSER WATER SUPPLY INLET,Water,2
 Node,28,CONDENSER WATER LOOP CONDENSER WATER PUMP OUTLET,Water,1
 Node,29,CONDENSER WATER LOOP CONDENSER WATER SUPPLY OUTLET PIPE INLET,Water,1
 Node,30,CONDENSER WATER LOOP CONDENSER WATER SUPPLY BYPASS INLET,Water,1
 Node,31,CONDENSER WATER LOOP CONDENSER WATER SUPPLY BYPASS OUTLET,Water,1
 Node,32,CONDENSER WATER LOOP CONDENSER WATER DEMAND INLET,Water,2
 Node,33,CONDENSER WATER LOOP CONDENSER WATER DEMAND INLET PIPE OUTLET,Water,1
 Node,34,CONDENSER WATER LOOP CONDENSER WATER DEMAND BYPASS INLET,Water,1
 Node,35,CONDENSER WATER LOOP CONDENSER WATER DEMAND BYPASS OUTLET,Water,1
 Node,36,CONDENSER WATER LOOP CONDENSER WATER DEMAND OUTLET PIPE INLET,Water,1
 Node,37,CONDENSER WATER LOOP CONDENSER WATER DEMAND OUTLET,Water,2
 Node,38,LEVEL 1 AIR LOOP INLET,Air,3
 Node,39,LEVEL 1 COOLING COIL CHILLED WATER INLET,Water,2
 Node,40,LEVEL 1 COOLING COIL CHILLED WATER OUTLET,Water,1
 Node,41,LEVEL 1 OUTSIDE AIR INLET,Air,2
 Node,42,TOWER% COOLING TOWER OUTDOOR AIR INLET NODE,Air,1
 Node,43,LEVEL 1:2 ROOM ZONE AIR NODE,Air,0
 Node,44,LEVEL 1:2 ROOM RETURN OUTLET,Air,0
 Node,45,LEVEL 1:2 ROOM SUPPLY INLET,Air,3
 Node,46,LEVEL 1:1 ROOM ZONE AIR NODE,Air,0
 Node,47,LEVEL 1:1 ROOM RETURN OUTLET,Air,0
 Node,48,LEVEL 1:1 ROOM SUPPLY INLET,Air,3
 Node,49,LEVEL 1:3 ROOM ZONE AIR NODE,Air,0
 Node,50,LEVEL 1:3 ROOM RETURN OUTLET,Air,0
 Node,51,LEVEL 1:3 ROOM SUPPLY INLET,Air,3
 Node,52,LEVEL 1:4 ROOM ZONE AIR NODE,Air,0
 Node,53,LEVEL 1:4 ROOM RETURN OUTLET,Air,0
 Node,54,LEVEL 1:4 ROOM SUPPLY INLET,Air,3
 Node,55,LEVEL 1 SUPPLY PATH INLET,Air,2
 Node,56,LEVEL 1 RETURN AIR OUTLET,Air,2
 Node,57,LEVEL 1 RELIEF AIR OUTLET,Air,1
! ===============================================================
! Suspicious nodes have 0 references.  It is normal for some nodes, however.
! Listing nodes with 0 references (culled from previous list):
! <Suspicious Node>,<NodeNumber>,<Node Name>,<Node Fluid Type>,<# Times Node Referenced After Definition>
 Suspicious Node,43,LEVEL 1:2 ROOM ZONE AIR NODE,Air,0
 Suspicious Node,44,LEVEL 1:2 ROOM RETURN OUTLET,Air,0
 Suspicious Node,46,LEVEL 1:1 ROOM ZONE AIR NODE,Air,0
 Suspicious Node,47,LEVEL 1:1 ROOM RETURN OUTLET,Air,0
 Suspicious Node,49,LEVEL 1:3 ROOM ZONE AIR NODE,Air,0
 Suspicious Node,50,LEVEL 1:3 ROOM RETURN OUTLET,Air,0
 Suspicious Node,52,LEVEL 1:4 ROOM ZONE AIR NODE,Air,0
 Suspicious Node,53,LEVEL 1:4 ROOM RETURN OUTLET,Air,0
! ===============================================================
! <#Branch Lists>,<Number of Branch Lists>
 #Branch Lists,5
! <Branch List>,<Branch List Count>,<Branch List Name>,<Loop Name>,<Loop Type>,<Number of Branches>
! <Branch>,<Branch Count>,<Branch Name>,<Loop Name>,<Loop Type>,<Branch Inlet Node Name>,<Branch Outlet Node Name>
 Branch List,1,CHILLED WATER LOOP CHILLED WATER DEMAND SIDE BRANCHES,CHILLED WATER LOOP,Plant Demand,4
   Branch,1,CHILLED WATER LOOP CHILLED WATER DEMAND INLET BRANCH,CHILLED WATER LOOP,Plant Demand,CHILLED WATER LOOP CHILLED WATER DEMAND INLET,CHILLED WATER LOOP CHILLED WATER SECONDARY PUMP OUTLET
   Branch,2,CHILLED WATER LOOP CHILLED WATER DEMAND BYPASS BRANCH,CHILLED WATER LOOP,Plant Demand,CHILLED WATER LOOP CHILLED WATER DEMAND BYPASS INLET,CHILLED WATER LOOP CHILLED WATER DEMAND BYPASS OUTLET
   Branch,3,LEVEL 1 COOLING COIL CHILLED WATER BRANCH,CHILLED WATER LOOP,Plant Demand,LEVEL 1 COOLING COIL CHILLED WATER INLET,LEVEL 1 COOLING COIL CHILLED WATER OUTLET
   Branch,4,CHILLED WATER LOOP CHILLED WATER DEMAND OUTLET BRANCH,CHILLED WATER LOOP,Plant Demand,CHILLED WATER LOOP CHILLED WATER DEMAND OUTLET PIPE INLET,CHILLED WATER LOOP CHILLED WATER DEMAND OUTLET
 Branch List,2,CHILLED WATER LOOP CHILLED WATER SUPPLY SIDE BRANCHES,CHILLED WATER LOOP,Plant Supply,4
   Branch,1,CHILLED WATER LOOP CHILLED WATER SUPPLY INLET BRANCH,CHILLED WATER LOOP,Plant Supply,CHILLED WATER LOOP CHILLED WATER SUPPLY INLET,CHILLED WATER LOOP CHILLED WATER PRIMARY PUMP OUTLET
   Branch,2,CHILLER% CHILLED WATER BRANCH,CHILLED WATER LOOP,Plant Supply,CHILLER% CHILLED WATER INLET,CHILLER% CHILLED WATER OUTLET
   Branch,3,CHILLED WATER LOOP CHILLED WATER SUPPLY BYPASS BRANCH,CHILLED WATER LOOP,Plant Supply,CHILLED WATER LOOP CHILLED WATER SUPPLY BYPASS INLET,CHILLED WATER LOOP CHILLED WATER SUPPLY BYPASS OUTLET
   Branch,4,CHILLED WATER LOOP CHILLED WATER SUPPLY OUTLET BRANCH,CHILLED WATER LOOP,Plant Supply,CHILLED WATER LOOP CHILLED WATER SUPPLY OUTLET PIPE INLET,CHILLED WATER LOOP CHILLED WATER SUPPLY OUTLET
 Branch List,3,CONDENSER WATER LOOP CONDENSER WATER SUPPLY SIDE BRANCHES,CONDENSER WATER LOOP,Condenser Supply,4
   Branch,1,CONDENSER WATER LOOP CONDENSER WATER SUPPLY INLET BRANCH,CONDENSER WATER LOOP,Condenser Supply,CONDENSER WATER LOOP CONDENSER WATER SUPPLY INLET,CONDENSER WATER LOOP CONDENSER WATER PUMP OUTLET
   Branch,2,TOWER% CONDENSER WATER BRANCH,CONDENSER WATER LOOP,Condenser Supply,TOWER% CONDENSER WATER INLET,TOWER% CONDENSER WATER OUTLET
   Branch,3,CONDENSER WATER LOOP CONDENSER WATER SUPPLY BYPASS BRANCH,CONDENSER WATER LOOP,Condenser Supply,CONDENSER WATER LOOP CONDENSER WATER SUPPLY BYPASS INLET,CONDENSER WATER LOOP CONDENSER WATER SUPPLY BYPASS OUTLET
   Branch,4,CONDENSER WATER LOOP CONDENSER WATER SUPPLY OUTLET BRANCH,CONDENSER WATER LOOP,Condenser Supply,CONDENSER WATER LOOP CONDENSER WATER SUPPLY OUTLET PIPE INLET,CONDENSER WATER LOOP CONDENSER WATER SUPPLY OUTLET
 Branch List,4,CONDENSER WATER LOOP CONDENSER WATER DEMAND SIDE BRANCHES,CONDENSER WATER LOOP,Condenser Demand,4
   Branch,1,CONDENSER WATER LOOP CONDENSER WATER DEMAND INLET BRANCH,CONDENSER WATER LOOP,Condenser Demand,CONDENSER WATER LOOP CONDENSER WATER DEMAND INLET,CONDENSER WATER LOOP CONDENSER WATER DEMAND INLET PIPE OUTLET
   Branch,2,CHILLER% CONDENSER WATER BRANCH,CONDENSER WATER LOOP,Condenser Demand,CHILLER% CONDENSER WATER INLET,CHILLER% CONDENSER WATER OUTLET
   Branch,3,CONDENSER WATER LOOP CONDENSER WATER DEMAND BYPASS BRANCH,CONDENSER WATER LOOP,Condenser Demand,CONDENSER WATER LOOP CONDENSER WATER DEMAND BYPASS INLET,CONDENSER WATER LOOP CONDENSER WATER DEMAND BYPASS OUTLET
   Branch,4,CONDENSER WATER LOOP CONDENSER WATER DEMAND OUTLET BRANCH,CONDENSER WATER LOOP,Condenser Demand,CONDENSER WATER LOOP CONDENSER WATER DEMAND OUTLET PIPE INLET,CONDENSER WATER LOOP CONDENSER WATER DEMAND OUTLET
 Branch List,5,LEVEL 1 BRANCHES,LEVEL 1 VAV,Air,1
   Branch,1,LEVEL 1 MAIN BRANCH,LEVEL 1 VAV,Air,LEVEL 1 AIR LOOP INLET,LEVEL 1 SUPPLY FAN OUTLET
! ===============================================================
! <#Supply Air Paths>,<Number of Supply Air Paths>
 #Supply Air Paths,1
! <Supply Air Path>,<Supply Air Path Count>,<Supply Air Path Name>,<AirLoopHVAC Name>
! <#Components on Supply Air Path>,<Number of Components>
! <Supply Air Path Component>,<Component Count>,<Component Type>,<Component Name>,<AirLoopHVAC Name>
! <#Outlet Nodes on Supply Air Path Component>,<Number of Nodes>
! <Supply Air Path Component Nodes>,<Node Count>,<Component Type>,<Component Name>,<Inlet Node Name>,<Outlet Node Name>,<AirLoopHVAC Name>
 Supply Air Path,1,LEVEL 1 SUPPLY PATH,LEVEL 1 VAV
   #Components on Supply Air Path,1
   Supply Air Path Component,1,AIRLOOPHVAC:ZONESPLITTER,LEVEL 1 ZONE SPLITTER,LEVEL 1 VAV
     #Outlet Nodes on Supply Air Path Component,4
     Supply Air Path Component Nodes,1,AIRLOOPHVAC:ZONESPLITTER,LEVEL 1 ZONE SPLITTER,LEVEL 1 SUPPLY PATH INLET,LEVEL 1:2 ROOM ZONE EQUIP INLET,LEVEL 1 VAV
     Supply Air Path Component Nodes,2,AIRLOOPHVAC:ZONESPLITTER,LEVEL 1 ZONE SPLITTER,LEVEL 1 SUPPLY PATH INLET,LEVEL 1:1 ROOM ZONE EQUIP INLET,LEVEL 1 VAV
     Supply Air Path Component Nodes,3,AIRLOOPHVAC:ZONESPLITTER,LEVEL 1 ZONE SPLITTER,LEVEL 1 SUPPLY PATH INLET,LEVEL 1:3 ROOM ZONE EQUIP INLET,LEVEL 1 VAV
     Supply Air Path Component Nodes,4,AIRLOOPHVAC:ZONESPLITTER,LEVEL 1 ZONE SPLITTER,LEVEL 1 SUPPLY PATH INLET,LEVEL 1:4 ROOM ZONE EQUIP INLET,LEVEL 1 VAV
! <#Nodes on Supply Air Path>,<Number of Nodes>
! <Supply Air Path Node>,<Node Type>,<Node Count>,<Node Name>,<AirLoopHVAC Name>
#Nodes on Supply Air Path,5
   Supply Air Path Node,Inlet Node,1,LEVEL 1 SUPPLY PATH INLET,LEVEL 1 VAV
   Supply Air Path Node,Outlet Node,2,LEVEL 1:2 ROOM ZONE EQUIP INLET,LEVEL 1 VAV
   Supply Air Path Node,Outlet Node,3,LEVEL 1:1 ROOM ZONE EQUIP INLET,LEVEL 1 VAV
   Supply Air Path Node,Outlet Node,4,LEVEL 1:3 ROOM ZONE EQUIP INLET,LEVEL 1 VAV
   Supply Air Path Node,Outlet Node,5,LEVEL 1:4 ROOM ZONE EQUIP INLET,LEVEL 1 VAV
! ===============================================================
! <#Return Air Paths>,<Number of Return Air Paths>
 #Return Air Paths,1
! <Return Air Path>,<Return Air Path Count>,<Return Air Path Name>,<AirLoopHVAC Name>
! <#Components on Return Air Path>,<Number of Components>
! <Return Air Path Component>,<Component Count>,<Component Type>,<Component Name>,<AirLoopHVAC Name>
! <#Inlet Nodes on Return Air Path Component>,<Number of Nodes>
! <Return Air Path Component Nodes>,<Node Count>,<Component Type>,<Component Name>,<Inlet Node Name>,<Outlet Node Name>,<AirLoopHVAC Name>
 Return Air Path,1,LEVEL 1 RETURN PATH,LEVEL 1 VAV
   #Components on Return Air Path,1
   Return Air Path Component,1,AIRLOOPHVAC:ZONEMIXER,LEVEL 1 ZONE MIXER,LEVEL 1 VAV
     #Inlet Nodes on Return Air Path Component,4
     Return Air Path Component Nodes,1,AIRLOOPHVAC:ZONEMIXER,LEVEL 1 ZONE MIXER,LEVEL 1:2 ROOM SUPPLY INLET,LEVEL 1 RETURN AIR OUTLET,LEVEL 1 VAV
     Return Air Path Component Nodes,2,AIRLOOPHVAC:ZONEMIXER,LEVEL 1 ZONE MIXER,LEVEL 1:1 ROOM SUPPLY INLET,LEVEL 1 RETURN AIR OUTLET,LEVEL 1 VAV
     Return Air Path Component Nodes,3,AIRLOOPHVAC:ZONEMIXER,LEVEL 1 ZONE MIXER,LEVEL 1:3 ROOM SUPPLY INLET,LEVEL 1 RETURN AIR OUTLET,LEVEL 1 VAV
     Return Air Path Component Nodes,4,AIRLOOPHVAC:ZONEMIXER,LEVEL 1 ZONE MIXER,LEVEL 1:4 ROOM SUPPLY INLET,LEVEL 1 RETURN AIR OUTLET,LEVEL 1 VAV
! <#Nodes on Return Air Path>,<Number of Nodes>
! <Return Air Path Node>,<Node Type>,<Node Count>,<Node Name>,<AirLoopHVAC Name>
   #Nodes on Return Air Path,5
   Return Air Path Node,Outlet Node,1,LEVEL 1 RETURN AIR OUTLET,LEVEL 1 VAV
   Return Air Path Node,Inlet Node,2,LEVEL 1:2 ROOM SUPPLY INLET,LEVEL 1 VAV
   Return Air Path Node,Inlet Node,3,LEVEL 1:1 ROOM SUPPLY INLET,LEVEL 1 VAV
   Return Air Path Node,Inlet Node,4,LEVEL 1:3 ROOM SUPPLY INLET,LEVEL 1 VAV
   Return Air Path Node,Inlet Node,5,LEVEL 1:4 ROOM SUPPLY INLET,LEVEL 1 VAV
! ===============================================================
! #Outdoor Air Nodes,<Number of Outdoor Air Nodes>
 #Outdoor Air Nodes,2
! <Outdoor Air Node>,<NodeNumber>,<Node Name>
 Outdoor Air Node,41,LEVEL 1 OUTSIDE AIR INLET
 Outdoor Air Node,42,TOWER% COOLING TOWER OUTDOOR AIR INLET NODE
! ===============================================================
! <#Component Sets>,<Number of Component Sets>
 #Component Sets,24
! <Component Set>,<Component Set Count>,<Parent Object Type>,<Parent Object Name>,<Component Type>,<Component Name>,<Inlet Node ID>,<Outlet Node ID>,<Description>
 Component Set,1,BRANCH,CHILLER% CHILLED WATER BRANCH,CHILLER:ELECTRIC:EIR,CHILLER%,CHILLER% CHILLED WATER INLET,CHILLER% CHILLED WATER OUTLET,Chilled Water Nodes
 Component Set,2,BRANCH,CHILLER% CONDENSER WATER BRANCH,CHILLER:ELECTRIC:EIR,CHILLER%,CHILLER% CONDENSER WATER INLET,CHILLER% CONDENSER WATER OUTLET,Condenser Water Nodes
 Component Set,3,BRANCH,TOWER% CONDENSER WATER BRANCH,COOLINGTOWER:TWOSPEED,TOWER%,TOWER% CONDENSER WATER INLET,TOWER% CONDENSER WATER OUTLET,Chilled Water Nodes
 Component Set,4,BRANCH,CHILLED WATER LOOP CHILLED WATER SUPPLY BYPASS BRANCH,PIPE:ADIABATIC,CHILLED WATER LOOP CHILLED WATER SUPPLY SIDE BYPASS PIPE,CHILLED WATER LOOP CHILLED WATER SUPPLY BYPASS INLET,CHILLED WATER LOOP CHILLED WATER SUPPLY BYPASS OUTLET,Pipe Nodes
 Component Set,5,BRANCH,CHILLED WATER LOOP CHILLED WATER SUPPLY INLET BRANCH,PUMP:VARIABLESPEED,CHILLED WATER LOOP CHILLED WATER PRIMARY SUPPLY PUMP,CHILLED WATER LOOP CHILLED WATER SUPPLY INLET,CHILLED WATER LOOP CHILLED WATER PRIMARY PUMP OUTLET,Water Nodes
 Component Set,6,BRANCH,CHILLED WATER LOOP CHILLED WATER SUPPLY OUTLET BRANCH,PIPE:ADIABATIC,CHILLED WATER LOOP CHILLED WATER SUPPLY OUTLET PIPE,CHILLED WATER LOOP CHILLED WATER SUPPLY OUTLET PIPE INLET,CHILLED WATER LOOP CHILLED WATER SUPPLY OUTLET,Pipe Nodes
 Component Set,7,BRANCH,CHILLED WATER LOOP CHILLED WATER DEMAND INLET BRANCH,PUMP:VARIABLESPEED,CHILLED WATER LOOP CHILLED WATER SECONDARY PUMP,CHILLED WATER LOOP CHILLED WATER DEMAND INLET,CHILLED WATER LOOP CHILLED WATER SECONDARY PUMP OUTLET,Water Nodes
 Component Set,8,BRANCH,CHILLED WATER LOOP CHILLED WATER DEMAND BYPASS BRANCH,PIPE:ADIABATIC,CHILLED WATER LOOP CHILLED WATER DEMAND SIDE BYPASS PIPE,CHILLED WATER LOOP CHILLED WATER DEMAND BYPASS INLET,CHILLED WATER LOOP CHILLED WATER DEMAND BYPASS OUTLET,Pipe Nodes
 Component Set,9,BRANCH,CHILLED WATER LOOP CHILLED WATER DEMAND OUTLET BRANCH,PIPE:ADIABATIC,CHILLED WATER LOOP CHILLED WATER DEMAND OUTLET PIPE,CHILLED WATER LOOP CHILLED WATER DEMAND OUTLET PIPE INLET,CHILLED WATER LOOP CHILLED WATER DEMAND OUTLET,Pipe Nodes
 Component Set,10,BRANCH,CONDENSER WATER LOOP CONDENSER WATER SUPPLY INLET BRANCH,PUMP:VARIABLESPEED,CONDENSER WATER LOOP CONDENSER WATER SUPPLY PUMP,CONDENSER WATER LOOP CONDENSER WATER SUPPLY INLET,CONDENSER WATER LOOP CONDENSER WATER PUMP OUTLET,Water Nodes
 Component Set,11,BRANCH,CONDENSER WATER LOOP CONDENSER WATER SUPPLY OUTLET BRANCH,PIPE:ADIABATIC,CONDENSER WATER LOOP CONDENSER WATER SUPPLY OUTLET PIPE,CONDENSER WATER LOOP CONDENSER WATER SUPPLY OUTLET PIPE INLET,CONDENSER WATER LOOP CONDENSER WATER SUPPLY OUTLET,Pipe Nodes
 Component Set,12,BRANCH,CONDENSER WATER LOOP CONDENSER WATER SUPPLY BYPASS BRANCH,PIPE:ADIABATIC,CONDENSER WATER LOOP CONDENSER WATER SUPPLY SIDE BYPASS PIPE,CONDENSER WATER LOOP CONDENSER WATER SUPPLY BYPASS INLET,CONDENSER WATER LOOP CONDENSER WATER SUPPLY BYPASS OUTLET,Pipe Nodes
 Component Set,13,BRANCH,CONDENSER WATER LOOP CONDENSER WATER DEMAND INLET BRANCH,PIPE:ADIABATIC,CONDENSER WATER LOOP CONDENSER WATER DEMAND INLET PIPE,CONDENSER WATER LOOP CONDENSER WATER DEMAND INLET,CONDENSER WATER LOOP CONDENSER WATER DEMAND INLET PIPE OUTLET,Pipe Nodes
 Component Set,14,BRANCH,CONDENSER WATER LOOP CONDENSER WATER DEMAND BYPASS BRANCH,PIPE:ADIABATIC,CONDENSER WATER LOOP CONDENSER WATER DEMAND SIDE BYPASS PIPE,CONDENSER WATER LOOP CONDENSER WATER DEMAND BYPASS INLET,CONDENSER WATER LOOP CONDENSER WATER DEMAND BYPASS OUTLET,Pipe Nodes
 Component Set,15,BRANCH,CONDENSER WATER LOOP CONDENSER WATER DEMAND OUTLET BRANCH,PIPE:ADIABATIC,CONDENSER WATER LOOP CONDENSER WATER DEMAND OUTLET PIPE,CONDENSER WATER LOOP CONDENSER WATER DEMAND OUTLET PIPE INLET,CONDENSER WATER LOOP CONDENSER WATER DEMAND OUTLET,Pipe Nodes
 Component Set,16,BRANCH,LEVEL 1 MAIN BRANCH,AIRLOOPHVAC:OUTDOORAIRSYSTEM,LEVEL 1 OA SYSTEM,LEVEL 1 AIR LOOP INLET,LEVEL 1 MIXED AIR OUTLET,Air Nodes
 Component Set,17,BRANCH,LEVEL 1 MAIN BRANCH,COIL:COOLING:WATER,LEVEL 1 COOLING COIL,LEVEL 1 MIXED AIR OUTLET,LEVEL 1 COOLING COIL OUTLET,Air Nodes
 Component Set,18,BRANCH,LEVEL 1 MAIN BRANCH,FAN:VARIABLEVOLUME,LEVEL 1 SUPPLY FAN,LEVEL 1 COOLING COIL OUTLET,LEVEL 1 SUPPLY FAN OUTLET,Air Nodes
 Component Set,19,BRANCH,LEVEL 1 COOLING COIL CHILLED WATER BRANCH,COIL:COOLING:WATER,LEVEL 1 COOLING COIL,LEVEL 1 COOLING COIL CHILLED WATER INLET,LEVEL 1 COOLING COIL CHILLED WATER OUTLET,Water Nodes
 Component Set,20,ZONEHVAC:AIRDISTRIBUTIONUNIT,LEVEL 1:2 ROOM ATU,AIRTERMINAL:SINGLEDUCT:VAV:NOREHEAT,LEVEL 1:2 ROOM VAV NOREHEAT,LEVEL 1:2 ROOM ZONE EQUIP INLET,LEVEL 1:2 ROOM SUPPLY INLET,Air Nodes
 Component Set,21,ZONEHVAC:AIRDISTRIBUTIONUNIT,LEVEL 1:1 ROOM ATU,AIRTERMINAL:SINGLEDUCT:VAV:NOREHEAT,LEVEL 1:1 ROOM VAV NOREHEAT,LEVEL 1:1 ROOM ZONE EQUIP INLET,LEVEL 1:1 ROOM SUPPLY INLET,Air Nodes
 Component Set,22,ZONEHVAC:AIRDISTRIBUTIONUNIT,LEVEL 1:3 ROOM ATU,AIRTERMINAL:SINGLEDUCT:VAV:NOREHEAT,LEVEL 1:3 ROOM VAV NOREHEAT,LEVEL 1:3 ROOM ZONE EQUIP INLET,LEVEL 1:3 ROOM SUPPLY INLET,Air Nodes
 Component Set,23,ZONEHVAC:AIRDISTRIBUTIONUNIT,LEVEL 1:4 ROOM ATU,AIRTERMINAL:SINGLEDUCT:VAV:NOREHEAT,LEVEL 1:4 ROOM VAV NOREHEAT,LEVEL 1:4 ROOM ZONE EQUIP INLET,LEVEL 1:4 ROOM SUPPLY INLET,Air Nodes
 Component Set,24,AIRLOOPHVAC:OUTDOORAIRSYSTEM,LEVEL 1 OA SYSTEM,OUTDOORAIR:MIXER,LEVEL 1 OA MIXING BOX,LEVEL 1 OUTSIDE AIR INLET,LEVEL 1 MIXED AIR OUTLET,Air Nodes
! ===============================================================
! <# Plant Loops>,<Number of Plant Loops>
 #Plant Loops,1
! <Plant Loop>,<Plant Loop Name>,<Loop Type>,<Inlet Node Name>,<Outlet Node Name>,<Branch List>,<Connector List>
! <Plant Loop Connector>,<Connector Type>,<Connector Name>,<Loop Name>,<Loop Type>,<Number of Inlets/Outlets>
! <Plant Loop Connector Branches>,<Connector Node Count>,<Connector Type>,<Connector Name>,<Inlet Branch>,<Outlet Branch>,<Loop Name>,<Loop Type>
! <Plant Loop Connector Nodes>,<Connector Node Count>,<Connector Type>,<Connector Name>,<Inlet Node>,<Outlet Node>,<Loop Name>,<Loop Type>
! <Plant Loop Supply Connection>,<Plant Loop Name>,<Supply Side Outlet Node Name>,<Demand Side Inlet Node Name>
! <Plant Loop Return Connection>,<Plant Loop Name>,<Demand Side Outlet Node Name>,<Supply Side Inlet Node Name>
 Plant Loop,CHILLED WATER LOOP,Demand,CHILLED WATER LOOP CHILLED WATER DEMAND INLET,CHILLED WATER LOOP CHILLED WATER DEMAND OUTLET,CHILLED WATER LOOP CHILLED WATER DEMAND SIDE BRANCHES,CHILLED WATER LOOP CHILLED WATER DEMAND SIDE CONNECTORS
   Plant Loop Connector,Splitter,CHILLED WATER LOOP CHILLED WATER DEMAND SPLITTER,CHILLED WATER LOOP,Demand,2
     Plant Loop Connector Branches,1,Splitter,CHILLED WATER LOOP CHILLED WATER DEMAND SPLITTER,CHILLED WATER LOOP CHILLED WATER DEMAND INLET BRANCH,CHILLED WATER LOOP CHILLED WATER DEMAND BYPASS BRANCH,CHILLED WATER LOOP,Demand
     Plant Loop Connector Nodes,   1,Splitter,CHILLED WATER LOOP CHILLED WATER DEMAND SPLITTER,CHILLED WATER LOOP CHILLED WATER SECONDARY PUMP OUTLET,CHILLED WATER LOOP CHILLED WATER DEMAND BYPASS INLET,CHILLED WATER LOOP,Demand
     Plant Loop Connector Branches,2,Splitter,CHILLED WATER LOOP CHILLED WATER DEMAND SPLITTER,CHILLED WATER LOOP CHILLED WATER DEMAND INLET BRANCH,LEVEL 1 COOLING COIL CHILLED WATER BRANCH,CHILLED WATER LOOP,Demand
     Plant Loop Connector Nodes,   2,Splitter,CHILLED WATER LOOP CHILLED WATER DEMAND SPLITTER,CHILLED WATER LOOP CHILLED WATER SECONDARY PUMP OUTLET,LEVEL 1 COOLING COIL CHILLED WATER INLET,CHILLED WATER LOOP,Demand
   Plant Loop Connector,Mixer,CHILLED WATER LOOP CHILLED WATER DEMAND MIXER,CHILLED WATER LOOP,Demand,2
     Plant Loop Connector Branches,1,Mixer,CHILLED WATER LOOP CHILLED WATER DEMAND MIXER,CHILLED WATER LOOP CHILLED WATER DEMAND BYPASS BRANCH,CHILLED WATER LOOP CHILLED WATER DEMAND OUTLET BRANCH,CHILLED WATER LOOP,Demand
     Plant Loop Connector Nodes,   1,Mixer,CHILLED WATER LOOP CHILLED WATER DEMAND MIXER,CHILLED WATER LOOP CHILLED WATER DEMAND BYPASS OUTLET,CHILLED WATER LOOP CHILLED WATER DEMAND OUTLET PIPE INLET,CHILLED WATER LOOP,Demand
     Plant Loop Connector Branches,2,Mixer,CHILLED WATER LOOP CHILLED WATER DEMAND MIXER,LEVEL 1 COOLING COIL CHILLED WATER BRANCH,CHILLED WATER LOOP CHILLED WATER DEMAND OUTLET BRANCH,CHILLED WATER LOOP,Demand
     Plant Loop Connector Nodes,   2,Mixer,CHILLED WATER LOOP CHILLED WATER DEMAND MIXER,LEVEL 1 COOLING COIL CHILLED WATER OUTLET,CHILLED WATER LOOP CHILLED WATER DEMAND OUTLET PIPE INLET,CHILLED WATER LOOP,Demand
 Plant Loop,CHILLED WATER LOOP,Supply,CHILLED WATER LOOP CHILLED WATER SUPPLY INLET,CHILLED WATER LOOP CHILLED WATER SUPPLY OUTLET,CHILLED WATER LOOP CHILLED WATER SUPPLY SIDE BRANCHES,CHILLED WATER LOOP CHILLED WATER SUPPLY SIDE CONNECTORS
   Plant Loop Connector,Splitter,CHILLED WATER LOOP CHILLED WATER SUPPLY SPLITTER,CHILLED WATER LOOP,Supply,2
     Plant Loop Connector Branches,1,Splitter,CHILLED WATER LOOP CHILLED WATER SUPPLY SPLITTER,CHILLED WATER LOOP CHILLED WATER SUPPLY INLET BRANCH,CHILLED WATER LOOP CHILLED WATER SUPPLY BYPASS BRANCH,CHILLED WATER LOOP,Supply
     Plant Loop Connector Nodes,   1,Splitter,CHILLED WATER LOOP CHILLED WATER SUPPLY SPLITTER,CHILLED WATER LOOP CHILLED WATER PRIMARY PUMP OUTLET,CHILLED WATER LOOP CHILLED WATER SUPPLY BYPASS INLET,CHILLED WATER LOOP,Supply
     Plant Loop Connector Branches,2,Splitter,CHILLED WATER LOOP CHILLED WATER SUPPLY SPLITTER,CHILLED WATER LOOP CHILLED WATER SUPPLY INLET BRANCH,CHILLER% CHILLED WATER BRANCH,CHILLED WATER LOOP,Supply
     Plant Loop Connector Nodes,   2,Splitter,CHILLED WATER LOOP CHILLED WATER SUPPLY SPLITTER,CHILLED WATER LOOP CHILLED WATER PRIMARY PUMP OUTLET,CHILLER% CHILLED WATER INLET,CHILLED WATER LOOP,Supply
   Plant Loop Connector,Mixer,CHILLED WATER LOOP CHILLED WATER SUPPLY MIXER,CHILLED WATER LOOP,Supply,2
     Plant Loop Connector Branches,1,Mixer,CHILLED WATER LOOP CHILLED WATER SUPPLY MIXER,CHILLED WATER LOOP CHILLED WATER SUPPLY BYPASS BRANCH,CHILLED WATER LOOP CHILLED WATER SUPPLY OUTLET BRANCH,CHILLED WATER LOOP,Supply
     Plant Loop Connector Nodes,   1,Mixer,CHILLED WATER LOOP CHILLED WATER SUPPLY MIXER,CHILLED WATER LOOP CHILLED WATER SUPPLY BYPASS OUTLET,CHILLED WATER LOOP CHILLED WATER SUPPLY OUTLET PIPE INLET,CHILLED WATER LOOP,Supply
     Plant Loop Connector Branches,2,Mixer,CHILLED WATER LOOP CHILLED WATER SUPPLY MIXER,CHILLER% CHILLED WATER BRANCH,CHILLED WATER LOOP CHILLED WATER SUPPLY OUTLET BRANCH,CHILLED WATER LOOP,Supply
     Plant Loop Connector Nodes,   2,Mixer,CHILLED WATER LOOP CHILLED WATER SUPPLY MIXER,CHILLER% CHILLED WATER OUTLET,CHILLED WATER LOOP CHILLED WATER SUPPLY OUTLET PIPE INLET,CHILLED WATER LOOP,Supply
 Plant Loop Supply Connection,CHILLED WATER LOOP,CHILLED WATER LOOP CHILLED WATER SUPPLY OUTLET,CHILLED WATER LOOP CHILLED WATER DEMAND INLET
 Plant Loop Return Connection,CHILLED WATER LOOP,CHILLED WATER LOOP CHILLED WATER DEMAND OUTLET,CHILLED WATER LOOP CHILLED WATER SUPPLY INLET
! ===============================================================
! <# Condenser Loops>,<Number of Condenser Loops>
 #Condenser Loops,1
! <Condenser Loop>,<Condenser Loop Name>,<Loop Type>,<Inlet Node Name>,<Outlet Node Name>,<Branch List>,<Connector List>
! <Condenser Loop Connector>,<Connector Type>,<Connector Name>,<Loop Name>,<Loop Type>,<Number of Inlets/Outlets>
! <Condenser Loop Connector Branches>,<Connector Node Count>,<Connector Type>,<Connector Name>,<Inlet Branch>,<Outlet Branch>,<Loop Name>,<Loop Type>
! <Condenser Loop Connector Nodes>,<Connector Node Count>,<Connector Type>,<Connector Name>,<Inlet Node>,<Outlet Node>,<Loop Name>,<Loop Type>
! <Condenser Loop Supply Connection>,<Condenser Loop Name>,<Supply Side Outlet Node Name>,<Demand Side Inlet Node Name>
! <Condenser Loop Return Connection>,<Condenser Loop Name>,<Demand Side Outlet Node Name>,<Supply Side Inlet Node Name>
 Plant Loop,CONDENSER WATER LOOP,Demand,CONDENSER WATER LOOP CONDENSER WATER DEMAND INLET,CONDENSER WATER LOOP CONDENSER WATER DEMAND OUTLET,CONDENSER WATER LOOP CONDENSER WATER DEMAND SIDE BRANCHES,CONDENSER WATER LOOP CONDENSER WATER DEMAND SIDE CONNECTORS
   Plant Loop Connector,Splitter,CONDENSER WATER LOOP CONDENSER WATER DEMAND SPLITTER,CONDENSER WATER LOOP,Demand,2
     Plant Loop Connector Branches,1,Splitter,CONDENSER WATER LOOP CONDENSER WATER DEMAND SPLITTER,CONDENSER WATER LOOP CONDENSER WATER DEMAND INLET BRANCH,CONDENSER WATER LOOP CONDENSER WATER DEMAND BYPASS BRANCH,CONDENSER WATER LOOP,Demand
     Plant Loop Connector Nodes,   1,Splitter,CONDENSER WATER LOOP CONDENSER WATER DEMAND SPLITTER,CONDENSER WATER LOOP CONDENSER WATER DEMAND INLET PIPE OUTLET,CONDENSER WATER LOOP CONDENSER WATER DEMAND BYPASS INLET,CONDENSER WATER LOOP,Demand
     Plant Loop Connector Branches,2,Splitter,CONDENSER WATER LOOP CONDENSER WATER DEMAND SPLITTER,CONDENSER WATER LOOP CONDENSER WATER DEMAND INLET BRANCH,CHILLER% CONDENSER WATER BRANCH,CONDENSER WATER LOOP,Demand
     Plant Loop Connector Nodes,   2,Splitter,CONDENSER WATER LOOP CONDENSER WATER DEMAND SPLITTER,CONDENSER WATER LOOP CONDENSER WATER DEMAND INLET PIPE OUTLET,CHILLER% CONDENSER WATER INLET,CONDENSER WATER LOOP,Demand
   Plant Loop Connector,Mixer,CONDENSER WATER LOOP CONDENSER WATER DEMAND MIXER,CONDENSER WATER LOOP,Demand,2
     Plant Loop Connector Branches,1,Mixer,CONDENSER WATER LOOP CONDENSER WATER DEMAND MIXER,CONDENSER WATER LOOP CONDENSER WATER DEMAND BYPASS BRANCH,CONDENSER WATER LOOP CONDENSER WATER DEMAND OUTLET BRANCH,CONDENSER WATER LOOP,Demand
     Plant Loop Connector Nodes,   1,Mixer,CONDENSER WATER LOOP CONDENSER WATER DEMAND MIXER,CONDENSER WATER LOOP CONDENSER WATER DEMAND BYPASS OUTLET,CONDENSER WATER LOOP CONDENSER WATER DEMAND OUTLET PIPE INLET,CONDENSER WATER LOOP,Demand
     Plant Loop Connector Branches,2,Mixer,CONDENSER WATER LOOP CONDENSER WATER DEMAND MIXER,CHILLER% CONDENSER WATER BRANCH,CONDENSER WATER LOOP CONDENSER WATER DEMAND OUTLET BRANCH,CONDENSER WATER LOOP,Demand
     Plant Loop Connector Nodes,   2,Mixer,CONDENSER WATER LOOP CONDENSER WATER DEMAND MIXER,CHILLER% CONDENSER WATER OUTLET,CONDENSER WATER LOOP CONDENSER WATER DEMAND OUTLET PIPE INLET,CONDENSER WATER LOOP,Demand
 Plant Loop,CONDENSER WATER LOOP,Supply,CONDENSER WATER LOOP CONDENSER WATER SUPPLY INLET,CONDENSER WATER LOOP CONDENSER WATER SUPPLY OUTLET,CONDENSER WATER LOOP CONDENSER WATER SUPPLY SIDE BRANCHES,CONDENSER WATER LOOP CONDENSER WATER SUPPLY SIDE CONNECTORS
   Plant Loop Connector,Splitter,CONDENSER WATER LOOP CONDENSER WATER SUPPLY SPLITTER,CONDENSER WATER LOOP,Supply,2
     Plant Loop Connector Branches,1,Splitter,CONDENSER WATER LOOP CONDENSER WATER SUPPLY SPLITTER,CONDENSER WATER LOOP CONDENSER WATER SUPPLY INLET BRANCH,CONDENSER WATER LOOP CONDENSER WATER SUPPLY BYPASS BRANCH,CONDENSER WATER LOOP,Supply
     Plant Loop Connector Nodes,   1,Splitter,CONDENSER WATER LOOP CONDENSER WATER SUPPLY SPLITTER,CONDENSER WATER LOOP CONDENSER WATER PUMP OUTLET,CONDENSER WATER LOOP CONDENSER WATER SUPPLY BYPASS INLET,CONDENSER WATER LOOP,Supply
     Plant Loop Connector Branches,2,Splitter,CONDENSER WATER LOOP CONDENSER WATER SUPPLY SPLITTER,CONDENSER WATER LOOP CONDENSER WATER SUPPLY INLET BRANCH,TOWER% CONDENSER WATER BRANCH,CONDENSER WATER LOOP,Supply
     Plant Loop Connector Nodes,   2,Splitter,CONDENSER WATER LOOP CONDENSER WATER SUPPLY SPLITTER,CONDENSER WATER LOOP CONDENSER WATER PUMP OUTLET,TOWER% CONDENSER WATER INLET,CONDENSER WATER LOOP,Supply
   Plant Loop Connector,Mixer,CONDENSER WATER LOOP CONDENSER WATER SUPPLY MIXER,CONDENSER WATER LOOP,Supply,2
     Plant Loop Connector Branches,1,Mixer,CONDENSER WATER LOOP CONDENSER WATER SUPPLY MIXER,CONDENSER WATER LOOP CONDENSER WATER SUPPLY BYPASS BRANCH,CONDENSER WATER LOOP CONDENSER WATER SUPPLY OUTLET BRANCH,CONDENSER WATER LOOP,Supply
     Plant Loop Connector Nodes,   1,Mixer,CONDENSER WATER LOOP CONDENSER WATER SUPPLY MIXER,CONDENSER WATER LOOP CONDENSER WATER SUPPLY BYPASS OUTLET,CONDENSER WATER LOOP CONDENSER WATER SUPPLY OUTLET PIPE INLET,CONDENSER WATER LOOP,Supply
     Plant Loop Connector Branches,2,Mixer,CONDENSER WATER LOOP CONDENSER WATER SUPPLY MIXER,TOWER% CONDENSER WATER BRANCH,CONDENSER WATER LOOP CONDENSER WATER SUPPLY OUTLET BRANCH,CONDENSER WATER LOOP,Supply
     Plant Loop Connector Nodes,   2,Mixer,CONDENSER WATER LOOP CONDENSER WATER SUPPLY MIXER,TOWER% CONDENSER WATER OUTLET,CONDENSER WATER LOOP CONDENSER WATER SUPPLY OUTLET PIPE INLET,CONDENSER WATER LOOP,Supply
 Plant Loop Supply Connection,CONDENSER WATER LOOP,CONDENSER WATER LOOP CONDENSER WATER SUPPLY OUTLET,CONDENSER WATER LOOP CONDENSER WATER DEMAND INLET
 Plant Loop Return Connection,CONDENSER WATER LOOP,CONDENSER WATER LOOP CONDENSER WATER DEMAND OUTLET,CONDENSER WATER LOOP CONDENSER WATER SUPPLY INLET
! ===============================================================
! <# Controlled Zones>,<Number of Controlled Zones>
 #Controlled Zones,4
! <Controlled Zone>,<Controlled Zone Name>,<Equip List Name>,<Control List Name>,<Zone Node Name>,<Return Air Node Name>,<# Inlet Nodes>,<# Exhaust Nodes>
! <Controlled Zone Inlet>,<Inlet Node Count>,<Controlled Zone Name>,<Supply Air Inlet Node Name>,<SD Sys:Cooling/Heating [DD:Cooling] Inlet Node Name>,<DD Sys:Heating Inlet Node Name>
! <Controlled Zone Exhaust>,<Exhaust Node Count>,<Controlled Zone Name>,<Exhaust Air Node Name>
 Controlled Zone,LEVEL 1:2 ROOM,LEVEL 1:2 ROOM EQUIPMENT,,LEVEL 1:2 ROOM ZONE AIR NODE,LEVEL 1:2 ROOM RETURN OUTLET,1,0
   Controlled Zone Inlet,1,LEVEL 1:2 ROOM,LEVEL 1:2 ROOM SUPPLY INLET,LEVEL 1:2 ROOM ZONE EQUIP INLET,N/A
 Controlled Zone,LEVEL 1:1 ROOM,LEVEL 1:1 ROOM EQUIPMENT,,LEVEL 1:1 ROOM ZONE AIR NODE,LEVEL 1:1 ROOM RETURN OUTLET,1,0
   Controlled Zone Inlet,1,LEVEL 1:1 ROOM,LEVEL 1:1 ROOM SUPPLY INLET,LEVEL 1:1 ROOM ZONE EQUIP INLET,N/A
 Controlled Zone,LEVEL 1:3 ROOM,LEVEL 1:3 ROOM EQUIPMENT,,LEVEL 1:3 ROOM ZONE AIR NODE,LEVEL 1:3 ROOM RETURN OUTLET,1,0
   Controlled Zone Inlet,1,LEVEL 1:3 ROOM,LEVEL 1:3 ROOM SUPPLY INLET,LEVEL 1:3 ROOM ZONE EQUIP INLET,N/A
 Controlled Zone,LEVEL 1:4 ROOM,LEVEL 1:4 ROOM EQUIPMENT,,LEVEL 1:4 ROOM ZONE AIR NODE,LEVEL 1:4 ROOM RETURN OUTLET,1,0
   Controlled Zone Inlet,1,LEVEL 1:4 ROOM,LEVEL 1:4 ROOM SUPPLY INLET,LEVEL 1:4 ROOM ZONE EQUIP INLET,N/A
! ===============================================================
! <#Zone Equipment Lists>,<Number of Zone Equipment Lists>
 #Zone Equipment Lists,4
! <Zone Equipment List>,<Zone Equipment List Count>,<Zone Equipment List Name>,<Zone Name>,<Number of Components>
! <Zone Equipment Component>,<Component Count>,<Component Type>,<Component Name>,<Zone Name>,<Heating Priority>,<Cooling Priority>
 Zone Equipment List,1,LEVEL 1:2 ROOM EQUIPMENT,LEVEL 1:2 ROOM,1
   Zone Equipment Component,1,ZONEHVAC:AIRDISTRIBUTIONUNIT,LEVEL 1:2 ROOM ATU,LEVEL 1:2 ROOM,1,1
 Zone Equipment List,2,LEVEL 1:1 ROOM EQUIPMENT,LEVEL 1:1 ROOM,1
   Zone Equipment Component,1,ZONEHVAC:AIRDISTRIBUTIONUNIT,LEVEL 1:1 ROOM ATU,LEVEL 1:1 ROOM,1,1
 Zone Equipment List,3,LEVEL 1:3 ROOM EQUIPMENT,LEVEL 1:3 ROOM,1
   Zone Equipment Component,1,ZONEHVAC:AIRDISTRIBUTIONUNIT,LEVEL 1:3 ROOM ATU,LEVEL 1:3 ROOM,1,1
 Zone Equipment List,4,LEVEL 1:4 ROOM EQUIPMENT,LEVEL 1:4 ROOM,1
   Zone Equipment Component,1,ZONEHVAC:AIRDISTRIBUTIONUNIT,LEVEL 1:4 ROOM ATU,LEVEL 1:4 ROOM,1,1
! ===============================================================
! <#AirLoopHVACs>,<Number of AirLoopHVACs>
 #AirLoopHVACs,1
! <AirLoopHVAC>,<Air Loop Name>,<# Return Nodes>,<# Supply Nodes>,<# Zones Cooled>,<# Zones Heated>,<Outdoor Air Used>
! <AirLoop Return Connections>,<Connection Count>,<AirLoopHVAC Name>,<Zn Eqp Return Node #>,<Zn Eqp Return Node Name>,<AirLoop Return Node #>,<Air Loop Return Node Name>
! <AirLoop Supply Connections>,<Connection Count>,<AirLoopHVAC Name>,<Zn Eqp Supply Node #>,<Zn Eqp Supply Node Name>,<AirLoop Supply Node #>,<Air Loop Supply Node Name>
! <Cooled Zone Info>,<Cooled Zone Count>,<Cooled Zone Name>,<Cooled Zone Inlet Node #>,<Cooled Zone Inlet Node Name>,<AirLoopHVAC Name>
! <Heated Zone Info>,<Heated Zone Count>,<Heated Zone Name>,<Heated Zone Inlet Node #>,<Heated Zone Inlet Node Name>,<AirLoopHVAC Name>
! <Outdoor Air Connections>,<OA Inlet Node #>,<OA Return Air Inlet Node Name>,<OA Outlet Node #>,<OA Mixed Air Outlet Node Name>,<AirLoopHVAC Name>
! <AirLoopHVAC Connector>,<Connector Type>,<Connector Name>,<Loop Name>,<Loop Type>,<Number of Inlets/Outlets>
! <AirLoopHVAC Connector Branches>,<Connector Node Count>,<Connector Type>,<Connector Name>,<Inlet Branch>,<Outlet Branch>,<Loop Name>,<Loop Type>
! <AirLoopHVAC Connector Nodes>,<Connector Node Count>,<Connector Type>,<Connector Name>,<Inlet Node>,<Outlet Node>,<Loop Name>,<Loop Type>
 AirLoopHVAC,LEVEL 1 VAV,1,1,4,0,Yes
   AirLoop Return Connections,1,LEVEL 1 VAV,56,LEVEL 1 RETURN AIR OUTLET,38,LEVEL 1 AIR LOOP INLET
   AirLoop Supply Connections,1,LEVEL 1 VAV,55,LEVEL 1 SUPPLY PATH INLET,1,LEVEL 1 SUPPLY FAN OUTLET
   Cooled Zone Info,1,LEVEL 1:2 ROOM,45,LEVEL 1:2 ROOM SUPPLY INLET,LEVEL 1 VAV
   Cooled Zone Info,2,LEVEL 1:1 ROOM,48,LEVEL 1:1 ROOM SUPPLY INLET,LEVEL 1 VAV
   Cooled Zone Info,3,LEVEL 1:3 ROOM,51,LEVEL 1:3 ROOM SUPPLY INLET,LEVEL 1 VAV
   Cooled Zone Info,4,LEVEL 1:4 ROOM,54,LEVEL 1:4 ROOM SUPPLY INLET,LEVEL 1 VAV
   Outdoor Air Connections,38,LEVEL 1 AIR LOOP INLET,9,LEVEL 1 MIXED AIR OUTLET,LEVEL 1 VAV
! ===============================================================
! <#Parent Node Connections>,<Number of Parent Node Connections>
 #Parent Node Connections,56
! <Parent Node Connection>,<Node Name>,<Node ObjectType>,<Node ObjectName>,<Node ConnectionType>,<Node FluidStream>
 Parent Node Connection,CHILLER% CHILLED WATER INLET,BRANCH,CHILLER% CHILLED WATER BRANCH,Inlet,1
 Parent Node Connection,CHILLER% CHILLED WATER OUTLET,BRANCH,CHILLER% CHILLED WATER BRANCH,Outlet,1
 Parent Node Connection,CHILLER% CONDENSER WATER INLET,BRANCH,CHILLER% CONDENSER WATER BRANCH,Inlet,1
 Parent Node Connection,CHILLER% CONDENSER WATER OUTLET,BRANCH,CHILLER% CONDENSER WATER BRANCH,Outlet,1
 Parent Node Connection,TOWER% CONDENSER WATER INLET,BRANCH,TOWER% CONDENSER WATER BRANCH,Inlet,1
 Parent Node Connection,TOWER% CONDENSER WATER OUTLET,BRANCH,TOWER% CONDENSER WATER BRANCH,Outlet,1
 Parent Node Connection,CHILLED WATER LOOP CHILLED WATER SUPPLY BYPASS INLET,BRANCH,CHILLED WATER LOOP CHILLED WATER SUPPLY BYPASS BRANCH,Inlet,1
 Parent Node Connection,CHILLED WATER LOOP CHILLED WATER SUPPLY BYPASS OUTLET,BRANCH,CHILLED WATER LOOP CHILLED WATER SUPPLY BYPASS BRANCH,Outlet,1
 Parent Node Connection,CHILLED WATER LOOP CHILLED WATER SUPPLY INLET,BRANCH,CHILLED WATER LOOP CHILLED WATER SUPPLY INLET BRANCH,Inlet,1
 Parent Node Connection,CHILLED WATER LOOP CHILLED WATER PRIMARY PUMP OUTLET,BRANCH,CHILLED WATER LOOP CHILLED WATER SUPPLY INLET BRANCH,Outlet,1
 Parent Node Connection,CHILLED WATER LOOP CHILLED WATER SUPPLY OUTLET PIPE INLET,BRANCH,CHILLED WATER LOOP CHILLED WATER SUPPLY OUTLET BRANCH,Inlet,1
 Parent Node Connection,CHILLED WATER LOOP CHILLED WATER SUPPLY OUTLET,BRANCH,CHILLED WATER LOOP CHILLED WATER SUPPLY OUTLET BRANCH,Outlet,1
 Parent Node Connection,CHILLED WATER LOOP CHILLED WATER DEMAND INLET,BRANCH,CHILLED WATER LOOP CHILLED WATER DEMAND INLET BRANCH,Inlet,1
 Parent Node Connection,CHILLED WATER LOOP CHILLED WATER SECONDARY PUMP OUTLET,BRANCH,CHILLED WATER LOOP CHILLED WATER DEMAND INLET BRANCH,Outlet,1
 Parent Node Connection,CHILLED WATER LOOP CHILLED WATER DEMAND BYPASS INLET,BRANCH,CHILLED WATER LOOP CHILLED WATER DEMAND BYPASS BRANCH,Inlet,1
 Parent Node Connection,CHILLED WATER LOOP CHILLED WATER DEMAND BYPASS OUTLET,BRANCH,CHILLED WATER LOOP CHILLED WATER DEMAND BYPASS BRANCH,Outlet,1
 Parent Node Connection,CHILLED WATER LOOP CHILLED WATER DEMAND OUTLET PIPE INLET,BRANCH,CHILLED WATER LOOP CHILLED WATER DEMAND OUTLET BRANCH,Inlet,1
 Parent Node Connection,CHILLED WATER LOOP CHILLED WATER DEMAND OUTLET,BRANCH,CHILLED WATER LOOP CHILLED WATER DEMAND OUTLET BRANCH,Outlet,1
 Parent Node Connection,CONDENSER WATER LOOP CONDENSER WATER SUPPLY INLET,BRANCH,CONDENSER WATER LOOP CONDENSER WATER SUPPLY INLET BRANCH,Inlet,1
 Parent Node Connection,CONDENSER WATER LOOP CONDENSER WATER PUMP OUTLET,BRANCH,CONDENSER WATER LOOP CONDENSER WATER SUPPLY INLET BRANCH,Outlet,1
 Parent Node Connection,CONDENSER WATER LOOP CONDENSER WATER SUPPLY OUTLET PIPE INLET,BRANCH,CONDENSER WATER LOOP CONDENSER WATER SUPPLY OUTLET BRANCH,Inlet,1
 Parent Node Connection,CONDENSER WATER LOOP CONDENSER WATER SUPPLY OUTLET,BRANCH,CONDENSER WATER LOOP CONDENSER WATER SUPPLY OUTLET BRANCH,Outlet,1
 Parent Node Connection,CONDENSER WATER LOOP CONDENSER WATER SUPPLY BYPASS INLET,BRANCH,CONDENSER WATER LOOP CONDENSER WATER SUPPLY BYPASS BRANCH,Inlet,1
 Parent Node Connection,CONDENSER WATER LOOP CONDENSER WATER SUPPLY BYPASS OUTLET,BRANCH,CONDENSER WATER LOOP CONDENSER WATER SUPPLY BYPASS BRANCH,Outlet,1
 Parent Node Connection,CONDENSER WATER LOOP CONDENSER WATER DEMAND INLET,BRANCH,CONDENSER WATER LOOP CONDENSER WATER DEMAND INLET BRANCH,Inlet,1
 Parent Node Connection,CONDENSER WATER LOOP CONDENSER WATER DEMAND INLET PIPE OUTLET,BRANCH,CONDENSER WATER LOOP CONDENSER WATER DEMAND INLET BRANCH,Outlet,1
 Parent Node Connection,CONDENSER WATER LOOP CONDENSER WATER DEMAND BYPASS INLET,BRANCH,CONDENSER WATER LOOP CONDENSER WATER DEMAND BYPASS BRANCH,Inlet,1
 Parent Node Connection,CONDENSER WATER LOOP CONDENSER WATER DEMAND BYPASS OUTLET,BRANCH,CONDENSER WATER LOOP CONDENSER WATER DEMAND BYPASS BRANCH,Outlet,1
 Parent Node Connection,CONDENSER WATER LOOP CONDENSER WATER DEMAND OUTLET PIPE INLET,BRANCH,CONDENSER WATER LOOP CONDENSER WATER DEMAND OUTLET BRANCH,Inlet,1
 Parent Node Connection,CONDENSER WATER LOOP CONDENSER WATER DEMAND OUTLET,BRANCH,CONDENSER WATER LOOP CONDENSER WATER DEMAND OUTLET BRANCH,Outlet,1
 Parent Node Connection,LEVEL 1 AIR LOOP INLET,BRANCH,LEVEL 1 MAIN BRANCH,Inlet,1
 Parent Node Connection,LEVEL 1 MIXED AIR OUTLET,BRANCH,LEVEL 1 MAIN BRANCH,Internal,1
 Parent Node Connection,LEVEL 1 COOLING COIL OUTLET,BRANCH,LEVEL 1 MAIN BRANCH,Internal,1
 Parent Node Connection,LEVEL 1 SUPPLY FAN OUTLET,BRANCH,LEVEL 1 MAIN BRANCH,Outlet,1
 Parent Node Connection,LEVEL 1 COOLING COIL CHILLED WATER INLET,BRANCH,LEVEL 1 COOLING COIL CHILLED WATER BRANCH,Inlet,1
 Parent Node Connection,LEVEL 1 COOLING COIL CHILLED WATER OUTLET,BRANCH,LEVEL 1 COOLING COIL CHILLED WATER BRANCH,Outlet,1
 Parent Node Connection,CHILLED WATER LOOP CHILLED WATER SUPPLY INLET,PLANTLOOP,CHILLED WATER LOOP,Inlet,1
 Parent Node Connection,CHILLED WATER LOOP CHILLED WATER SUPPLY OUTLET,PLANTLOOP,CHILLED WATER LOOP,Outlet,1
 Parent Node Connection,CHILLED WATER LOOP CHILLED WATER DEMAND INLET,PLANTLOOP,CHILLED WATER LOOP,Inlet,1
 Parent Node Connection,CHILLED WATER LOOP CHILLED WATER DEMAND OUTLET,PLANTLOOP,CHILLED WATER LOOP,Outlet,1
 Parent Node Connection,CHILLED WATER LOOP CHILLED WATER SUPPLY OUTLET,PLANTLOOP,CHILLED WATER LOOP,Sensor,1
 Parent Node Connection,CONDENSER WATER LOOP CONDENSER WATER SUPPLY INLET,CONDENSERLOOP,CONDENSER WATER LOOP,Inlet,1
 Parent Node Connection,CONDENSER WATER LOOP CONDENSER WATER SUPPLY OUTLET,CONDENSERLOOP,CONDENSER WATER LOOP,Outlet,1
 Parent Node Connection,CONDENSER WATER LOOP CONDENSER WATER DEMAND INLET,CONDENSERLOOP,CONDENSER WATER LOOP,Inlet,1
 Parent Node Connection,CONDENSER WATER LOOP CONDENSER WATER DEMAND OUTLET,CONDENSERLOOP,CONDENSER WATER LOOP,Outlet,1
 Parent Node Connection,CONDENSER WATER LOOP CONDENSER WATER SUPPLY OUTLET,CONDENSERLOOP,CONDENSER WATER LOOP,Sensor,1
 Parent Node Connection,LEVEL 1 SUPPLY PATH INLET,AIRLOOPHVAC:SUPPLYPATH,LEVEL 1 SUPPLY PATH,Inlet,1
 Parent Node Connection,LEVEL 1 RETURN AIR OUTLET,AIRLOOPHVAC:RETURNPATH,LEVEL 1 RETURN PATH,Outlet,1
 Parent Node Connection,LEVEL 1:2 ROOM SUPPLY INLET,ZONEHVAC:AIRDISTRIBUTIONUNIT,LEVEL 1:2 ROOM ATU,Outlet,1
 Parent Node Connection,LEVEL 1:1 ROOM SUPPLY INLET,ZONEHVAC:AIRDISTRIBUTIONUNIT,LEVEL 1:1 ROOM ATU,Outlet,1
 Parent Node Connection,LEVEL 1:3 ROOM SUPPLY INLET,ZONEHVAC:AIRDISTRIBUTIONUNIT,LEVEL 1:3 ROOM ATU,Outlet,1
 Parent Node Connection,LEVEL 1:4 ROOM SUPPLY INLET,ZONEHVAC:AIRDISTRIBUTIONUNIT,LEVEL 1:4 ROOM ATU,Outlet,1
 Parent Node Connection,LEVEL 1 AIR LOOP INLET,AIRLOOPHVAC,LEVEL 1 VAV,Inlet,1
 Parent Node Connection,LEVEL 1 RETURN AIR OUTLET,AIRLOOPHVAC,LEVEL 1 VAV,Outlet,1
 Parent Node Connection,LEVEL 1 SUPPLY PATH INLET,AIRLOOPHVAC,LEVEL 1 VAV,Inlet,1
 Parent Node Connection,LEVEL 1 SUPPLY FAN OUTLET,AIRLOOPHVAC,LEVEL 1 VAV,Outlet,1
! ===============================================================
! <#Non-Parent Node Connections>,<Number of Non-Parent Node Connections>
 #Non-Parent Node Connections,111
! <Non-Parent Node Connection>,<Node Name>,<Node ObjectType>,<Node ObjectName>,<Node ConnectionType>,<Node FluidStream>
 Non-Parent Node Connection,LEVEL 1 OUTSIDE AIR INLET,OUTDOORAIR:NODELIST,OutdoorAir:NodeList,OutdoorAir,1
 Non-Parent Node Connection,TOWER% COOLING TOWER OUTDOOR AIR INLET NODE,OUTDOORAIR:NODE,OutdoorAir:Node,OutdoorAir,2
 Non-Parent Node Connection,CONDENSER WATER LOOP CONDENSER WATER SUPPLY OUTLET,SETPOINTMANAGER:SCHEDULED,CONDENSER WATER LOOP CONDENSER WATER TEMP MANAGER,Setpoint,1
 Non-Parent Node Connection,CHILLER% CHILLED WATER OUTLET,SETPOINTMANAGER:SCHEDULED,CHILLED WATER LOOP CHILLED WATER TEMP MANAGER,Setpoint,1
 Non-Parent Node Connection,CHILLED WATER LOOP CHILLED WATER SUPPLY OUTLET,SETPOINTMANAGER:OUTDOORAIRRESET,CHILLED WATER LOOP CHILLED WATER TEMP MANAGER,Setpoint,1
 Non-Parent Node Connection,LEVEL 1 SUPPLY FAN OUTLET,SETPOINTMANAGER:OUTDOORAIRRESET,LEVEL 1 AHU OUTLET SETPOINT,Setpoint,1
 Non-Parent Node Connection,LEVEL 1 SUPPLY FAN OUTLET,SETPOINTMANAGER:MIXEDAIR,LEVEL 1 COOLING COIL AIR TEMP MANAGER,Sensor,1
 Non-Parent Node Connection,LEVEL 1 COOLING COIL OUTLET,SETPOINTMANAGER:MIXEDAIR,LEVEL 1 COOLING COIL AIR TEMP MANAGER,Sensor,1
 Non-Parent Node Connection,LEVEL 1 COOLING COIL OUTLET,SETPOINTMANAGER:MIXEDAIR,LEVEL 1 COOLING COIL AIR TEMP MANAGER,Setpoint,1
 Non-Parent Node Connection,LEVEL 1 MIXED AIR OUTLET,SETPOINTMANAGER:MIXEDAIR,LEVEL 1 COOLING COIL AIR TEMP MANAGER,Setpoint,1
 Non-Parent Node Connection,CHILLED WATER LOOP CHILLED WATER SUPPLY BYPASS INLET,PIPE:ADIABATIC,CHILLED WATER LOOP CHILLED WATER SUPPLY SIDE BYPASS PIPE,Inlet,1
 Non-Parent Node Connection,CHILLED WATER LOOP CHILLED WATER SUPPLY BYPASS OUTLET,PIPE:ADIABATIC,CHILLED WATER LOOP CHILLED WATER SUPPLY SIDE BYPASS PIPE,Outlet,1
 Non-Parent Node Connection,CHILLED WATER LOOP CHILLED WATER SUPPLY OUTLET PIPE INLET,PIPE:ADIABATIC,CHILLED WATER LOOP CHILLED WATER SUPPLY OUTLET PIPE,Inlet,1
 Non-Parent Node Connection,CHILLED WATER LOOP CHILLED WATER SUPPLY OUTLET,PIPE:ADIABATIC,CHILLED WATER LOOP CHILLED WATER SUPPLY OUTLET PIPE,Outlet,1
 Non-Parent Node Connection,CHILLED WATER LOOP CHILLED WATER DEMAND BYPASS INLET,PIPE:ADIABATIC,CHILLED WATER LOOP CHILLED WATER DEMAND SIDE BYPASS PIPE,Inlet,1
 Non-Parent Node Connection,CHILLED WATER LOOP CHILLED WATER DEMAND BYPASS OUTLET,PIPE:ADIABATIC,CHILLED WATER LOOP CHILLED WATER DEMAND SIDE BYPASS PIPE,Outlet,1
 Non-Parent Node Connection,CHILLED WATER LOOP CHILLED WATER DEMAND OUTLET PIPE INLET,PIPE:ADIABATIC,CHILLED WATER LOOP CHILLED WATER DEMAND OUTLET PIPE,Inlet,1
 Non-Parent Node Connection,CHILLED WATER LOOP CHILLED WATER DEMAND OUTLET,PIPE:ADIABATIC,CHILLED WATER LOOP CHILLED WATER DEMAND OUTLET PIPE,Outlet,1
 Non-Parent Node Connection,CONDENSER WATER LOOP CONDENSER WATER SUPPLY OUTLET PIPE INLET,PIPE:ADIABATIC,CONDENSER WATER LOOP CONDENSER WATER SUPPLY OUTLET PIPE,Inlet,1
 Non-Parent Node Connection,CONDENSER WATER LOOP CONDENSER WATER SUPPLY OUTLET,PIPE:ADIABATIC,CONDENSER WATER LOOP CONDENSER WATER SUPPLY OUTLET PIPE,Outlet,1
 Non-Parent Node Connection,CONDENSER WATER LOOP CONDENSER WATER SUPPLY BYPASS INLET,PIPE:ADIABATIC,CONDENSER WATER LOOP CONDENSER WATER SUPPLY SIDE BYPASS PIPE,Inlet,1
 Non-Parent Node Connection,CONDENSER WATER LOOP CONDENSER WATER SUPPLY BYPASS OUTLET,PIPE:ADIABATIC,CONDENSER WATER LOOP CONDENSER WATER SUPPLY SIDE BYPASS PIPE,Outlet,1
 Non-Parent Node Connection,CONDENSER WATER LOOP CONDENSER WATER DEMAND INLET,PIPE:ADIABATIC,CONDENSER WATER LOOP CONDENSER WATER DEMAND INLET PIPE,Inlet,1
 Non-Parent Node Connection,CONDENSER WATER LOOP CONDENSER WATER DEMAND INLET PIPE OUTLET,PIPE:ADIABATIC,CONDENSER WATER LOOP CONDENSER WATER DEMAND INLET PIPE,Outlet,1
 Non-Parent Node Connection,CONDENSER WATER LOOP CONDENSER WATER DEMAND BYPASS INLET,PIPE:ADIABATIC,CONDENSER WATER LOOP CONDENSER WATER DEMAND SIDE BYPASS PIPE,Inlet,1
 Non-Parent Node Connection,CONDENSER WATER LOOP CONDENSER WATER DEMAND BYPASS OUTLET,PIPE:ADIABATIC,CONDENSER WATER LOOP CONDENSER WATER DEMAND SIDE BYPASS PIPE,Outlet,1
 Non-Parent Node Connection,CONDENSER WATER LOOP CONDENSER WATER DEMAND OUTLET PIPE INLET,PIPE:ADIABATIC,CONDENSER WATER LOOP CONDENSER WATER DEMAND OUTLET PIPE,Inlet,1
 Non-Parent Node Connection,CONDENSER WATER LOOP CONDENSER WATER DEMAND OUTLET,PIPE:ADIABATIC,CONDENSER WATER LOOP CONDENSER WATER DEMAND OUTLET PIPE,Outlet,1
 Non-Parent Node Connection,CHILLED WATER LOOP CHILLED WATER SECONDARY PUMP OUTLET,CONNECTOR:SPLITTER,CHILLED WATER LOOP CHILLED WATER DEMAND SPLITTER,Inlet,1
 Non-Parent Node Connection,CHILLED WATER LOOP CHILLED WATER DEMAND BYPASS INLET,CONNECTOR:SPLITTER,CHILLED WATER LOOP CHILLED WATER DEMAND SPLITTER,Outlet,1
 Non-Parent Node Connection,LEVEL 1 COOLING COIL CHILLED WATER INLET,CONNECTOR:SPLITTER,CHILLED WATER LOOP CHILLED WATER DEMAND SPLITTER,Outlet,1
 Non-Parent Node Connection,CHILLED WATER LOOP CHILLED WATER DEMAND OUTLET PIPE INLET,CONNECTOR:MIXER,CHILLED WATER LOOP CHILLED WATER DEMAND MIXER,Outlet,1
 Non-Parent Node Connection,CHILLED WATER LOOP CHILLED WATER DEMAND BYPASS OUTLET,CONNECTOR:MIXER,CHILLED WATER LOOP CHILLED WATER DEMAND MIXER,Inlet,1
 Non-Parent Node Connection,LEVEL 1 COOLING COIL CHILLED WATER OUTLET,CONNECTOR:MIXER,CHILLED WATER LOOP CHILLED WATER DEMAND MIXER,Inlet,1
 Non-Parent Node Connection,CHILLED WATER LOOP CHILLED WATER PRIMARY PUMP OUTLET,CONNECTOR:SPLITTER,CHILLED WATER LOOP CHILLED WATER SUPPLY SPLITTER,Inlet,1
 Non-Parent Node Connection,CHILLED WATER LOOP CHILLED WATER SUPPLY BYPASS INLET,CONNECTOR:SPLITTER,CHILLED WATER LOOP CHILLED WATER SUPPLY SPLITTER,Outlet,1
 Non-Parent Node Connection,CHILLER% CHILLED WATER INLET,CONNECTOR:SPLITTER,CHILLED WATER LOOP CHILLED WATER SUPPLY SPLITTER,Outlet,1
 Non-Parent Node Connection,CHILLED WATER LOOP CHILLED WATER SUPPLY OUTLET PIPE INLET,CONNECTOR:MIXER,CHILLED WATER LOOP CHILLED WATER SUPPLY MIXER,Outlet,1
 Non-Parent Node Connection,CHILLED WATER LOOP CHILLED WATER SUPPLY BYPASS OUTLET,CONNECTOR:MIXER,CHILLED WATER LOOP CHILLED WATER SUPPLY MIXER,Inlet,1
 Non-Parent Node Connection,CHILLER% CHILLED WATER OUTLET,CONNECTOR:MIXER,CHILLED WATER LOOP CHILLED WATER SUPPLY MIXER,Inlet,1
 Non-Parent Node Connection,CONDENSER WATER LOOP CONDENSER WATER DEMAND INLET PIPE OUTLET,CONNECTOR:SPLITTER,CONDENSER WATER LOOP CONDENSER WATER DEMAND SPLITTER,Inlet,1
 Non-Parent Node Connection,CONDENSER WATER LOOP CONDENSER WATER DEMAND BYPASS INLET,CONNECTOR:SPLITTER,CONDENSER WATER LOOP CONDENSER WATER DEMAND SPLITTER,Outlet,1
 Non-Parent Node Connection,CHILLER% CONDENSER WATER INLET,CONNECTOR:SPLITTER,CONDENSER WATER LOOP CONDENSER WATER DEMAND SPLITTER,Outlet,1
 Non-Parent Node Connection,CONDENSER WATER LOOP CONDENSER WATER DEMAND OUTLET PIPE INLET,CONNECTOR:MIXER,CONDENSER WATER LOOP CONDENSER WATER DEMAND MIXER,Outlet,1
 Non-Parent Node Connection,CONDENSER WATER LOOP CONDENSER WATER DEMAND BYPASS OUTLET,CONNECTOR:MIXER,CONDENSER WATER LOOP CONDENSER WATER DEMAND MIXER,Inlet,1
 Non-Parent Node Connection,CHILLER% CONDENSER WATER OUTLET,CONNECTOR:MIXER,CONDENSER WATER LOOP CONDENSER WATER DEMAND MIXER,Inlet,1
 Non-Parent Node Connection,CONDENSER WATER LOOP CONDENSER WATER PUMP OUTLET,CONNECTOR:SPLITTER,CONDENSER WATER LOOP CONDENSER WATER SUPPLY SPLITTER,Inlet,1
 Non-Parent Node Connection,CONDENSER WATER LOOP CONDENSER WATER SUPPLY BYPASS INLET,CONNECTOR:SPLITTER,CONDENSER WATER LOOP CONDENSER WATER SUPPLY SPLITTER,Outlet,1
 Non-Parent Node Connection,TOWER% CONDENSER WATER INLET,CONNECTOR:SPLITTER,CONDENSER WATER LOOP CONDENSER WATER SUPPLY SPLITTER,Outlet,1
 Non-Parent Node Connection,CONDENSER WATER LOOP CONDENSER WATER SUPPLY OUTLET PIPE INLET,CONNECTOR:MIXER,CONDENSER WATER LOOP CONDENSER WATER SUPPLY MIXER,Outlet,1
 Non-Parent Node Connection,CONDENSER WATER LOOP CONDENSER WATER SUPPLY BYPASS OUTLET,CONNECTOR:MIXER,CONDENSER WATER LOOP CONDENSER WATER SUPPLY MIXER,Inlet,1
 Non-Parent Node Connection,TOWER% CONDENSER WATER OUTLET,CONNECTOR:MIXER,CONDENSER WATER LOOP CONDENSER WATER SUPPLY MIXER,Inlet,1
 Non-Parent Node Connection,LEVEL 1:2 ROOM ZONE AIR NODE,ZONEHVAC:EQUIPMENTCONNECTIONS,LEVEL 1:2 ROOM,ZoneNode,1
 Non-Parent Node Connection,LEVEL 1:2 ROOM RETURN OUTLET,ZONEHVAC:EQUIPMENTCONNECTIONS,LEVEL 1:2 ROOM,ZoneReturn,1
 Non-Parent Node Connection,LEVEL 1:2 ROOM SUPPLY INLET,ZONEHVAC:EQUIPMENTCONNECTIONS,LEVEL 1:2 ROOM,ZoneInlet,1
 Non-Parent Node Connection,LEVEL 1:1 ROOM ZONE AIR NODE,ZONEHVAC:EQUIPMENTCONNECTIONS,LEVEL 1:1 ROOM,ZoneNode,1
 Non-Parent Node Connection,LEVEL 1:1 ROOM RETURN OUTLET,ZONEHVAC:EQUIPMENTCONNECTIONS,LEVEL 1:1 ROOM,ZoneReturn,1
 Non-Parent Node Connection,LEVEL 1:1 ROOM SUPPLY INLET,ZONEHVAC:EQUIPMENTCONNECTIONS,LEVEL 1:1 ROOM,ZoneInlet,1
 Non-Parent Node Connection,LEVEL 1:3 ROOM ZONE AIR NODE,ZONEHVAC:EQUIPMENTCONNECTIONS,LEVEL 1:3 ROOM,ZoneNode,1
 Non-Parent Node Connection,LEVEL 1:3 ROOM RETURN OUTLET,ZONEHVAC:EQUIPMENTCONNECTIONS,LEVEL 1:3 ROOM,ZoneReturn,1
 Non-Parent Node Connection,LEVEL 1:3 ROOM SUPPLY INLET,ZONEHVAC:EQUIPMENTCONNECTIONS,LEVEL 1:3 ROOM,ZoneInlet,1
 Non-Parent Node Connection,LEVEL 1:4 ROOM ZONE AIR NODE,ZONEHVAC:EQUIPMENTCONNECTIONS,LEVEL 1:4 ROOM,ZoneNode,1
 Non-Parent Node Connection,LEVEL 1:4 ROOM RETURN OUTLET,ZONEHVAC:EQUIPMENTCONNECTIONS,LEVEL 1:4 ROOM,ZoneReturn,1
 Non-Parent Node Connection,LEVEL 1:4 ROOM SUPPLY INLET,ZONEHVAC:EQUIPMENTCONNECTIONS,LEVEL 1:4 ROOM,ZoneInlet,1
 Non-Parent Node Connection,LEVEL 1 SUPPLY PATH INLET,AIRLOOPHVAC:ZONESPLITTER,LEVEL 1 ZONE SPLITTER,Inlet,1
 Non-Parent Node Connection,LEVEL 1:2 ROOM ZONE EQUIP INLET,AIRLOOPHVAC:ZONESPLITTER,LEVEL 1 ZONE SPLITTER,Outlet,1
 Non-Parent Node Connection,LEVEL 1:1 ROOM ZONE EQUIP INLET,AIRLOOPHVAC:ZONESPLITTER,LEVEL 1 ZONE SPLITTER,Outlet,1
 Non-Parent Node Connection,LEVEL 1:3 ROOM ZONE EQUIP INLET,AIRLOOPHVAC:ZONESPLITTER,LEVEL 1 ZONE SPLITTER,Outlet,1
 Non-Parent Node Connection,LEVEL 1:4 ROOM ZONE EQUIP INLET,AIRLOOPHVAC:ZONESPLITTER,LEVEL 1 ZONE SPLITTER,Outlet,1
 Non-Parent Node Connection,LEVEL 1:2 ROOM SUPPLY INLET,AIRTERMINAL:SINGLEDUCT:VAV:NOREHEAT,LEVEL 1:2 ROOM VAV NOREHEAT,Outlet,1
 Non-Parent Node Connection,LEVEL 1:2 ROOM ZONE EQUIP INLET,AIRTERMINAL:SINGLEDUCT:VAV:NOREHEAT,LEVEL 1:2 ROOM VAV NOREHEAT,Inlet,1
 Non-Parent Node Connection,LEVEL 1:1 ROOM SUPPLY INLET,AIRTERMINAL:SINGLEDUCT:VAV:NOREHEAT,LEVEL 1:1 ROOM VAV NOREHEAT,Outlet,1
 Non-Parent Node Connection,LEVEL 1:1 ROOM ZONE EQUIP INLET,AIRTERMINAL:SINGLEDUCT:VAV:NOREHEAT,LEVEL 1:1 ROOM VAV NOREHEAT,Inlet,1
 Non-Parent Node Connection,LEVEL 1:3 ROOM SUPPLY INLET,AIRTERMINAL:SINGLEDUCT:VAV:NOREHEAT,LEVEL 1:3 ROOM VAV NOREHEAT,Outlet,1
 Non-Parent Node Connection,LEVEL 1:3 ROOM ZONE EQUIP INLET,AIRTERMINAL:SINGLEDUCT:VAV:NOREHEAT,LEVEL 1:3 ROOM VAV NOREHEAT,Inlet,1
 Non-Parent Node Connection,LEVEL 1:4 ROOM SUPPLY INLET,AIRTERMINAL:SINGLEDUCT:VAV:NOREHEAT,LEVEL 1:4 ROOM VAV NOREHEAT,Outlet,1
 Non-Parent Node Connection,LEVEL 1:4 ROOM ZONE EQUIP INLET,AIRTERMINAL:SINGLEDUCT:VAV:NOREHEAT,LEVEL 1:4 ROOM VAV NOREHEAT,Inlet,1
 Non-Parent Node Connection,LEVEL 1 RETURN AIR OUTLET,AIRLOOPHVAC:ZONEMIXER,LEVEL 1 ZONE MIXER,Outlet,1
 Non-Parent Node Connection,LEVEL 1:2 ROOM SUPPLY INLET,AIRLOOPHVAC:ZONEMIXER,LEVEL 1 ZONE MIXER,Inlet,1
 Non-Parent Node Connection,LEVEL 1:1 ROOM SUPPLY INLET,AIRLOOPHVAC:ZONEMIXER,LEVEL 1 ZONE MIXER,Inlet,1
 Non-Parent Node Connection,LEVEL 1:3 ROOM SUPPLY INLET,AIRLOOPHVAC:ZONEMIXER,LEVEL 1 ZONE MIXER,Inlet,1
 Non-Parent Node Connection,LEVEL 1:4 ROOM SUPPLY INLET,AIRLOOPHVAC:ZONEMIXER,LEVEL 1 ZONE MIXER,Inlet,1
 Non-Parent Node Connection,LEVEL 1 MIXED AIR OUTLET,OUTDOORAIR:MIXER,LEVEL 1 OA MIXING BOX,Outlet,1
 Non-Parent Node Connection,LEVEL 1 OUTSIDE AIR INLET,OUTDOORAIR:MIXER,LEVEL 1 OA MIXING BOX,Inlet,1
 Non-Parent Node Connection,LEVEL 1 RELIEF AIR OUTLET,OUTDOORAIR:MIXER,LEVEL 1 OA MIXING BOX,ReliefAir,1
 Non-Parent Node Connection,LEVEL 1 AIR LOOP INLET,OUTDOORAIR:MIXER,LEVEL 1 OA MIXING BOX,Inlet,1
 Non-Parent Node Connection,LEVEL 1 COOLING COIL CHILLED WATER INLET,COIL:COOLING:WATER,LEVEL 1 COOLING COIL,Inlet,2
 Non-Parent Node Connection,LEVEL 1 COOLING COIL CHILLED WATER OUTLET,COIL:COOLING:WATER,LEVEL 1 COOLING COIL,Outlet,2
 Non-Parent Node Connection,LEVEL 1 MIXED AIR OUTLET,COIL:COOLING:WATER,LEVEL 1 COOLING COIL,Inlet,1
 Non-Parent Node Connection,LEVEL 1 COOLING COIL OUTLET,COIL:COOLING:WATER,LEVEL 1 COOLING COIL,Outlet,1
 Non-Parent Node Connection,LEVEL 1 COOLING COIL OUTLET,CONTROLLER:WATERCOIL,LEVEL 1 COOLING COIL CONTROLLER,Sensor,1
 Non-Parent Node Connection,LEVEL 1 COOLING COIL CHILLED WATER INLET,CONTROLLER:WATERCOIL,LEVEL 1 COOLING COIL CONTROLLER,Actuator,1
 Non-Parent Node Connection,LEVEL 1 COOLING COIL OUTLET,FAN:VARIABLEVOLUME,LEVEL 1 SUPPLY FAN,Inlet,1
 Non-Parent Node Connection,LEVEL 1 SUPPLY FAN OUTLET,FAN:VARIABLEVOLUME,LEVEL 1 SUPPLY FAN,Outlet,1
 Non-Parent Node Connection,LEVEL 1 MIXED AIR OUTLET,CONTROLLER:OUTDOORAIR,LEVEL 1 OA CONTROLLER,Sensor,1
 Non-Parent Node Connection,LEVEL 1 OUTSIDE AIR INLET,CONTROLLER:OUTDOORAIR,LEVEL 1 OA CONTROLLER,Actuator,1
 Non-Parent Node Connection,LEVEL 1 RELIEF AIR OUTLET,CONTROLLER:OUTDOORAIR,LEVEL 1 OA CONTROLLER,Actuator,1
 Non-Parent Node Connection,LEVEL 1 AIR LOOP INLET,CONTROLLER:OUTDOORAIR,LEVEL 1 OA CONTROLLER,Sensor,1
 Non-Parent Node Connection,CHILLER% CHILLED WATER INLET,CHILLER:ELECTRIC:EIR,CHILLER%,Inlet,1
 Non-Parent Node Connection,CHILLER% CHILLED WATER OUTLET,CHILLER:ELECTRIC:EIR,CHILLER%,Outlet,1
 Non-Parent Node Connection,CHILLER% CONDENSER WATER INLET,CHILLER:ELECTRIC:EIR,CHILLER%,Inlet,2
 Non-Parent Node Connection,CHILLER% CONDENSER WATER OUTLET,CHILLER:ELECTRIC:EIR,CHILLER%,Outlet,2
 Non-Parent Node Connection,TOWER% CONDENSER WATER INLET,COOLINGTOWER:TWOSPEED,TOWER%,Inlet,1
 Non-Parent Node Connection,TOWER% CONDENSER WATER OUTLET,COOLINGTOWER:TWOSPEED,TOWER%,Outlet,1
 Non-Parent Node Connection,TOWER% COOLING TOWER OUTDOOR AIR INLET NODE,COOLINGTOWER:TWOSPEED,TOWER%,OutsideAirReference,1
 Non-Parent Node Connection,CHILLED WATER LOOP CHILLED WATER SUPPLY INLET,PUMP:VARIABLESPEED,CHILLED WATER LOOP CHILLED WATER PRIMARY SUPPLY PUMP,Inlet,1
 Non-Parent Node Connection,CHILLED WATER LOOP CHILLED WATER PRIMARY PUMP OUTLET,PUMP:VARIABLESPEED,CHILLED WATER LOOP CHILLED WATER PRIMARY SUPPLY PUMP,Outlet,1
 Non-Parent Node Connection,CHILLED WATER LOOP CHILLED WATER DEMAND INLET,PUMP:VARIABLESPEED,CHILLED WATER LOOP CHILLED WATER SECONDARY PUMP,Inlet,1
 Non-Parent Node Connection,CHILLED WATER LOOP CHILLED WATER SECONDARY PUMP OUTLET,PUMP:VARIABLESPEED,CHILLED WATER LOOP CHILLED WATER SECONDARY PUMP,Outlet,1
 Non-Parent Node Connection,CONDENSER WATER LOOP CONDENSER WATER SUPPLY INLET,PUMP:VARIABLESPEED,CONDENSER WATER LOOP CONDENSER WATER SUPPLY PUMP,Inlet,1
 Non-Parent Node Connection,CONDENSER WATER LOOP CONDENSER WATER PUMP OUTLET,PUMP:VARIABLESPEED,CONDENSER WATER LOOP CONDENSER WATER SUPPLY PUMP,Outlet,1
