Program Version,EnergyPlus, Version 8.6.0-198c6a3cff, YMD=2018.12.24 22:52
! <Version>, Version ID
 Version, 8.6
! <Timesteps per Hour>, #TimeSteps, Minutes per TimeStep {minutes}
 Timesteps per Hour,  6, 10
! <System Convergence Limits>, Minimum System TimeStep {minutes}, Max HVAC Iterations, Minimum Plant Iterations, Maximum Plant Iterations
 System Convergence Limits, 1, 20, 2, 8
! <Simulation Control>, Do Zone Sizing, Do System Sizing, Do Plant Sizing, Do Design Days, Do Weather Simulation, Do HVAC Sizing Simulation
 Simulation Control, Yes, Yes, Yes, No, Yes, Yes
! <Output Reporting Tolerances>, Tolerance for Time Heating Setpoint Not Met, Tolerance for Zone Cooling Setpoint Not Met Time
 Output Reporting Tolerances, 0.200, 0.200, 
! <Site:GroundTemperature:BuildingSurface>, Months From Jan to Dec {C}
 Site:GroundTemperature:BuildingSurface,  19.53,  19.50,  19.54,  19.60,  20.00,  21.64,  22.23,  22.38,  21.45,  20.12,  19.80,  19.63
! <Site:GroundTemperature:FCfactorMethod>, Months From Jan to Dec {C}
 Site:GroundTemperature:FCfactorMethod,  28.08,  28.56,  28.97,  29.20,  29.37,  29.21,  28.85,  28.38,  27.93,  27.63,  27.55,  27.71
! <Site:GroundTemperature:Shallow>, Months From Jan to Dec {C}
 Site:GroundTemperature:Shallow,  13.00,  13.00,  13.00,  13.00,  13.00,  13.00,  13.00,  13.00,  13.00,  13.00,  13.00,  13.00
! <Site:GroundTemperature:Deep>, Months From Jan to Dec {C}
 Site:GroundTemperature:Deep,  16.00,  16.00,  16.00,  16.00,  16.00,  16.00,  16.00,  16.00,  16.00,  16.00,  16.00,  16.00
! <Site:GroundReflectance>, Months From Jan to Dec {dimensionless}
 Site:GroundReflectance,  0.20,  0.20,  0.20,  0.20,  0.20,  0.20,  0.20,  0.20,  0.20,  0.20,  0.20,  0.20
! <Site:GroundReflectance:SnowModifier>, Normal, Daylighting {dimensionless}
 Site:GroundReflectance:SnowModifier,   1.000,   1.000
! <Site:GroundReflectance:Snow>, Months From Jan to Dec {dimensionless}
 Site:GroundReflectance:Snow,  0.20,  0.20,  0.20,  0.20,  0.20,  0.20,  0.20,  0.20,  0.20,  0.20,  0.20,  0.20
! <Site:GroundReflectance:Snow:Daylighting>, Months From Jan to Dec {dimensionless}
 Site:GroundReflectance:Snow:Daylighting,  0.20,  0.20,  0.20,  0.20,  0.20,  0.20,  0.20,  0.20,  0.20,  0.20,  0.20,  0.20
! <Environment:Weather Station>,Wind Sensor Height Above Ground {m},Wind Speed Profile Exponent {},Wind Speed Profile Boundary Layer Thickness {m},Air Temperature Sensor Height Above Ground {m},Wind Speed Modifier Coefficient [Internal],Temperature Modifier Coefficient [Internal]
Environment:Weather Station,10.000,0.140,270.000,1.500,1.586,9.750E-003
! <Site:Location>, Location Name, Latitude {N+/S- Deg}, Longitude {E+/W- Deg},  Time Zone Number {GMT+/-}, Elevation {m},  Standard Pressure at Elevation {Pa}, Standard RhoAir at Elevation
Site:Location,SINGAPORE-CHANGI-AP - SGP Custom-486980 WMO#=486980,1.37,103.98,7.00,16.00,101133,1.2020
! <Building Information>, Building Name,North Axis {deg},Terrain,  Loads Convergence Tolerance Value,Temperature Convergence Tolerance Value,  Solar Distribution,Maximum Number of Warmup Days,Minimum Number of Warmup Days
 Building Information,bldg-1,0.000,City,4.00000E-002,0.40000,FullExterior,25,6
! <Inside Convection Algorithm>, Algorithm {Simple | TARP | CeilingDiffuser | AdaptiveConvectionAlgorithm}
Inside Convection Algorithm,TARP
! <Outside Convection Algorithm>, Algorithm {SimpleCombined | TARP | MoWitt | DOE-2 | AdaptiveConvectionAlgorithm}
Outside Convection Algorithm,DOE-2
! <Sky Radiance Distribution>, Value {Anisotropic}
Sky Radiance Distribution,Anisotropic
! <Zone Air Solution Algorithm>, Value {ThirdOrderBackwardDifference | AnalyticalSolution | EulerMethod}
 Zone Air Solution Algorithm, ThirdOrderBackwardDifference
! <Zone Air Carbon Dioxide Balance Simulation>, Simulation {Yes/No}, Carbon Dioxide Concentration
 Zone Air Carbon Dioxide Balance Simulation, No,N/A
! <Zone Air Generic Contaminant Balance Simulation>, Simulation {Yes/No}, Generic Contaminant Concentration
 Zone Air Generic Contaminant Balance Simulation, No,N/A
! <Zone Air Mass Flow Balance Simulation>, Enforce Mass Balance, Adjust Zone Mixing, Adjust Zone Infiltration {AddInfiltration | AdjustInfiltration | None}, Infiltration Zones {MixingSourceZonesOnly | AllZones}
 Zone Air Mass Flow Balance Simulation, No,N/A,N/A,N/A
! <Environment:Site Atmospheric Variation>,Wind Speed Profile Exponent {},Wind Speed Profile Boundary Layer Thickness {m},Air Temperature Gradient Coefficient {K/m}
Environment:Site Atmospheric Variation,0.330,460.000,6.500000E-003
! <SurfaceGeometry>,Starting Corner,Vertex Input Direction,Coordinate System,Daylight Reference Point Coordinate System,Rectangular (Simple) Surface Coordinate System
 Surface Geometry,LowerLeftCorner,Counterclockwise,RelativeCoordinateSystem,RelativeCoordinateSystem,RelativeToZoneOrigin
! <Surface Heat Transfer Algorithm>, Value {CTF - ConductionTransferFunction | EMPD - MoisturePenetrationDepthConductionTransferFunction | CondFD - ConductionFiniteDifference | HAMT - CombinedHeatAndMoistureFiniteElement} - Description,Inside Surface Max Temperature Limit{C}, Surface Convection Coefficient Lower Limit {W/m2-K}, Surface Convection Coefficient Upper Limit {W/m2-K}
Surface Heat Transfer Algorithm, CTF - ConductionTransferFunction,2000,0.10,1000.0
! <Shading Summary>, Number of Fixed Detached Shades, Number of Building Detached Shades, Number of Attached Shades
 Shading Summary,0,0,0
! <Zone Summary>, Number of Zones, Number of Zone Surfaces, Number of SubSurfaces
 Zone Summary,4,28,0
! <Zone Information>,Zone Name,North Axis {deg},Origin X-Coordinate {m},Origin Y-Coordinate {m},Origin Z-Coordinate {m},Centroid X-Coordinate {m},Centroid Y-Coordinate {m},Centroid Z-Coordinate {m},Type,Zone Multiplier,Zone List Multiplier,Minimum X {m},Maximum X {m},Minimum Y {m},Maximum Y {m},Minimum Z {m},Maximum Z {m},Ceiling Height {m},Volume {m3},Zone Inside Convection Algorithm {Simple-Detailed-CeilingDiffuser-TrombeWall},Zone Outside Convection Algorithm {Simple-Detailed-Tarp-MoWitt-DOE-2-BLAST}, Floor Area {m2},Exterior Gross Wall Area {m2},Exterior Net Wall Area {m2},Exterior Window Area {m2}, Number of Surfaces, Number of SubSurfaces, Number of Shading SubSurfaces,  Part of Total Building Area
 Zone Information, LEVEL 1:2 ROOM,0.0,0.00,0.00,0.00,26.06,11.83,3.50,1,1,1,16.06,36.06,6.83,16.83,0.00,7.00,7.00,1368.66,TARP,DOE-2,195.52,210.00,210.00,0.00,7,0,0,Yes
 Zone Information, LEVEL 1:1 ROOM,0.0,0.00,0.00,0.00,6.01,1.83,3.50,1,1,1,-4.04,16.06,-12.17,15.83,0.00,7.00,7.00,3896.33,TARP,DOE-2,556.62,477.41,477.41,0.00,8,0,0,Yes
 Zone Information, LEVEL 1:3 ROOM,0.0,0.00,0.00,0.00,26.06,1.83,3.50,1,1,1,16.06,36.06,-3.17,6.83,0.00,7.00,7.00,1361.71,TARP,DOE-2,194.53,70.00,70.00,0.00,6,0,0,Yes
 Zone Information, LEVEL 1:4 ROOM,0.0,0.00,0.00,0.00,26.06,-8.17,3.50,1,1,1,16.06,36.06,-13.17,-3.17,0.00,7.00,7.00,1368.66,TARP,DOE-2,195.52,210.00,210.00,0.00,7,0,0,Yes
! <Zone Internal Gains/Equipment Information - Nominal>,Zone Name, Floor Area {m2},# Occupants,Area per Occupant {m2/person},Occupant per Area {person/m2},Interior Lighting {W/m2},Electric Load {W/m2},Gas Load {W/m2},Other Load {W/m2},Hot Water Eq {W/m2},Steam Equipment {W/m2},Sum Loads per Area {W/m2},Outdoor Controlled Baseboard Heat
 Zone Internal Gains, LEVEL 1:2 ROOM,195.52,0.0,N/A,0.000,3.566,5.390,0.000,0.000,0.000,0.000,8.956,No
 Zone Internal Gains, LEVEL 1:1 ROOM,556.62,0.0,N/A,0.000,3.566,5.390,0.000,0.000,0.000,0.000,8.956,No
 Zone Internal Gains, LEVEL 1:3 ROOM,194.53,0.0,N/A,0.000,3.566,5.390,0.000,0.000,0.000,0.000,8.956,No
 Zone Internal Gains, LEVEL 1:4 ROOM,195.52,0.0,N/A,0.000,3.566,5.390,0.000,0.000,0.000,0.000,8.956,No
! <People Internal Gains - Nominal>,Name,Schedule Name,Zone Name,Zone Floor Area {m2},# Zone Occupants,Number of People {},People/Floor Area {person/m2},Floor Area per person {m2/person},Fraction Radiant,Fraction Convected,Sensible Fraction Calculation,Activity level,ASHRAE 55 Warnings,Carbon Dioxide Generation Rate,Nominal Minimum Number of People,Nominal Maximum Number of People
 People Internal Gains, LEVEL 1:2 ROOM PEOPLE,BUILDING_OCC_SCH,LEVEL 1:2 ROOM,195.52,0.0,0.0,0.000,N/A,0.300,0.700,AutoCalculate,ACTIVITY SCHEDULE,No,3.8200E-008,0,0
 People Internal Gains, LEVEL 1:1 ROOM PEOPLE,BUILDING_OCC_SCH,LEVEL 1:1 ROOM,556.62,0.0,0.0,0.000,N/A,0.300,0.700,AutoCalculate,ACTIVITY SCHEDULE,No,3.8200E-008,0,0
 People Internal Gains, LEVEL 1:3 ROOM PEOPLE,BUILDING_OCC_SCH,LEVEL 1:3 ROOM,194.53,0.0,0.0,0.000,N/A,0.300,0.700,AutoCalculate,ACTIVITY SCHEDULE,No,3.8200E-008,0,0
 People Internal Gains, LEVEL 1:4 ROOM PEOPLE,BUILDING_OCC_SCH,LEVEL 1:4 ROOM,195.52,0.0,0.0,0.000,N/A,0.300,0.700,AutoCalculate,ACTIVITY SCHEDULE,No,3.8200E-008,0,0
! <Lights Internal Gains - Nominal>,Name,Schedule Name,Zone Name,Zone Floor Area {m2},# Zone Occupants,Lighting Level {W},Lights/Floor Area {W/m2},Lights per person {W/person},Fraction Return Air,Fraction Radiant,Fraction Short Wave,Fraction Convected,Fraction Replaceable,End-Use Category,Nominal Minimum Lighting Level {W},Nominal Maximum Lighting Level {W}
 Lights Internal Gains, LEVEL 1:2 ROOM LIGHTS,BUILDING_LIGHT_SCH,LEVEL 1:2 ROOM,195.52,0.0,697.233,3.566,N/A,0.000,0.320,0.230,0.450,0.450,General,108.575,603.792
 Lights Internal Gains, LEVEL 1:1 ROOM LIGHTS,BUILDING_LIGHT_SCH,LEVEL 1:1 ROOM,556.62,0.0,1984.903,3.566,N/A,0.000,0.320,0.230,0.450,0.450,General,309.094,1718.893
 Lights Internal Gains, LEVEL 1:3 ROOM LIGHTS,BUILDING_LIGHT_SCH,LEVEL 1:3 ROOM,194.53,0.0,693.694,3.566,N/A,0.000,0.320,0.230,0.450,0.450,General,108.024,600.727
 Lights Internal Gains, LEVEL 1:4 ROOM LIGHTS,BUILDING_LIGHT_SCH,LEVEL 1:4 ROOM,195.52,0.0,697.233,3.566,N/A,0.000,0.320,0.230,0.450,0.450,General,108.575,603.792
! <ElectricEquipment Internal Gains - Nominal>,Name,Schedule Name,Zone Name,Zone Floor Area {m2},# Zone Occupants,Equipment Level {W},Equipment/Floor Area {W/m2},Equipment per person {W/person},Fraction Latent,Fraction Radiant,Fraction Lost,Fraction Convected,End-Use SubCategory,Nominal Minimum Equipment Level {W},Nominal Maximum Equipment Level {W}
 ElectricEquipment Internal Gains, LEVEL 1:2 ROOM ELECTRICEQUIPMENT,BUILDING_EQUIPMENT_SCH,LEVEL 1:2 ROOM,195.52,0.0,1053.866,5.390,N/A,0.000,0.300,0.200,0.500,General,276.161,849.041
 ElectricEquipment Internal Gains, LEVEL 1:1 ROOM ELECTRICEQUIPMENT,BUILDING_EQUIPMENT_SCH,LEVEL 1:1 ROOM,556.62,0.0,3000.176,5.390,N/A,0.000,0.300,0.200,0.500,General,786.182,2417.074
 ElectricEquipment Internal Gains, LEVEL 1:3 ROOM ELECTRICEQUIPMENT,BUILDING_EQUIPMENT_SCH,LEVEL 1:3 ROOM,194.53,0.0,1048.517,5.390,N/A,0.000,0.300,0.200,0.500,General,274.759,844.731
 ElectricEquipment Internal Gains, LEVEL 1:4 ROOM ELECTRICEQUIPMENT,BUILDING_EQUIPMENT_SCH,LEVEL 1:4 ROOM,195.52,0.0,1053.866,5.390,N/A,0.000,0.300,0.200,0.500,General,276.161,849.041
! <Shadowing/Sun Position Calculations> [Annual Simulations], Calculation Method, Value {days}, Allowable Number Figures in Shadow Overlap {}, Polygon Clipping Algorithm, Sky Diffuse Modeling Algorithm
Shadowing/Sun Position Calculations,AverageOverDaysInFrequency,20,15000,SutherlandHodgman,SimpleSkyDiffuseModeling
! <Infiltration Airflow Stats - Nominal>,Name,Schedule Name,Zone Name, Zone Floor Area {m2}, # Zone Occupants,Design Volume Flow Rate {m3/s},Volume Flow Rate/Floor Area {m3/s/m2},Volume Flow Rate/Exterior Surface Area {m3/s/m2},ACH - Air Changes per Hour,Equation A - Constant Term Coefficient {},Equation B - Temperature Term Coefficient {1/C},Equation C - Velocity Term Coefficient {s/m}, Equation D - Velocity Squared Term Coefficient {s2/m2}
 ZoneInfiltration Airflow Stats, LEVEL 1:2 ROOM INFILTRATION,INFILTRATION SCHEDULE,LEVEL 1:2 ROOM,195.52,0.0,0.152,7.778E-004,3.709E-004,0.400,1.000,0.000,0.000,0.000
 ZoneInfiltration Airflow Stats, LEVEL 1:1 ROOM INFILTRATION,INFILTRATION SCHEDULE,LEVEL 1:1 ROOM,556.62,0.0,0.433,7.778E-004,4.162E-004,0.400,1.000,0.000,0.000,0.000
 ZoneInfiltration Airflow Stats, LEVEL 1:3 ROOM INFILTRATION,INFILTRATION SCHEDULE,LEVEL 1:3 ROOM,194.53,0.0,0.151,7.778E-004,5.604E-004,0.400,1.000,0.000,0.000,0.000
 ZoneInfiltration Airflow Stats, LEVEL 1:4 ROOM INFILTRATION,INFILTRATION SCHEDULE,LEVEL 1:4 ROOM,195.52,0.0,0.152,7.778E-004,3.709E-004,0.400,1.000,0.000,0.000,0.000
! <AirFlow Model>, Simple
 AirFlow Model, Simple
! <RoomAir Model>, Zone Name, Mixing/Mundt/UCSDDV/UCSDCV/UCSDUFI/UCSDUFE/User Defined
RoomAir Model,LEVEL 1:2 ROOM,Mixing/Well-Stirred
RoomAir Model,LEVEL 1:1 ROOM,Mixing/Well-Stirred
RoomAir Model,LEVEL 1:3 ROOM,Mixing/Well-Stirred
RoomAir Model,LEVEL 1:4 ROOM,Mixing/Well-Stirred
! <AirflowNetwork Model:Control>, No Multizone or Distribution/Multizone with Distribution/Multizone without Distribution/Multizone with Distribution only during Fan Operation
AirflowNetwork Model:Control,NoMultizoneOrDistribution
! <Zone Volume Capacitance Multiplier>, Sensible Heat Capacity Multiplier, Moisture Capacity Multiplier, Carbon Dioxide Capacity Multiplier, Generic Contaminant Capacity Multiplier
Zone Volume Capacitance Multiplier,   1.000 ,   1.000,   1.000,   1.000
! <Load Timesteps in Zone Design Calculation Averaging Window>, Value
 Load Timesteps in Zone Design Calculation Averaging Window,    6
! <Heating Sizing Factor Information>, Sizing Factor ID, Value
 Heating Sizing Factor Information, Global,   1.0000    
 Heating Sizing Factor Information, Zone LEVEL 1:2 ROOM,   1.2500    
 Heating Sizing Factor Information, Zone LEVEL 1:1 ROOM,   1.2500    
 Heating Sizing Factor Information, Zone LEVEL 1:3 ROOM,   1.2500    
 Heating Sizing Factor Information, Zone LEVEL 1:4 ROOM,   1.2500    
! <Cooling Sizing Factor Information>, Sizing Factor ID, Value
 Cooling Sizing Factor Information, Global,   1.1500    
 Cooling Sizing Factor Information, Zone LEVEL 1:2 ROOM,   1.1500    
 Cooling Sizing Factor Information, Zone LEVEL 1:1 ROOM,   1.1500    
 Cooling Sizing Factor Information, Zone LEVEL 1:3 ROOM,   1.1500    
 Cooling Sizing Factor Information, Zone LEVEL 1:4 ROOM,   1.1500    
! <Zone Sizing Information>, Zone Name, Load Type, Calc Des Load {W}, User Des Load {W}, Calc Des Air Flow Rate {m3/s}, User Des Air Flow Rate {m3/s}, Design Day Name, Date/Time of Peak, Temperature at Peak {C}, Humidity Ratio at Peak {kgWater/kgDryAir}, Floor Area {m2}, # Occupants, Calc Outdoor Air Flow Rate {m3/s}, Calc DOAS Heat Addition Rate {W}
 Zone Sizing Information, LEVEL 1:2 ROOM, Cooling, 21516.95567, 24744.49902, 1.58920, 1.82759, CHICAGO ANN CLG 99.6% CONDNS WB=>MDB, 7/21 16:40:00, 29.98733, 1.87829E-002, 195.52250, 0.00000, 0.61101, 0.00000
 Zone Sizing Information, LEVEL 1:2 ROOM, Heating, 55717.86552, 69647.33190, 4.14305, 5.17882, CHICAGO ANN HTG 99.6% CONDNS DB, 1/21 24:00:00, -20.60000, 6.12575E-004, 195.52250, 0.00000, 0.61101, 0.00000
 Zone Sizing Information, LEVEL 1:1 ROOM, Cooling, 51444.71350, 59161.42052, 3.79962, 4.36956, CHICAGO ANN CLG 99.6% CONDNS WB=>MDB, 7/21 17:20:00, 29.34533, 1.87829E-002, 556.61900, 0.00000, 1.73943, 0.00000
 Zone Sizing Information, LEVEL 1:1 ROOM, Heating, 141323.31512, 176654.14390, 10.50848, 13.13560, CHICAGO ANN HTG 99.6% CONDNS DB, 1/21 24:00:00, -20.60000, 6.12575E-004, 556.61900, 0.00000, 1.73943, 0.00000
 Zone Sizing Information, LEVEL 1:3 ROOM, Cooling, 15381.61449, 17688.85666, 1.13606, 1.30647, CHICAGO ANN CLG 99.6% CONDNS WB=>MDB, 7/21 16:20:00, 30.27267, 1.87829E-002, 194.53000, 0.00000, 0.60791, 0.00000
 Zone Sizing Information, LEVEL 1:3 ROOM, Heating, 41995.48538, 52494.35672, 3.12269, 3.90336, CHICAGO ANN HTG 99.6% CONDNS DB, 1/21 24:00:00, -20.60000, 6.12575E-004, 194.53000, 0.00000, 0.60791, 0.00000
 Zone Sizing Information, LEVEL 1:4 ROOM, Cooling, 16276.30113, 18717.74630, 1.20214, 1.38246, CHICAGO ANN CLG 99.6% CONDNS WB=>MDB, 7/21 16:30:00, 30.13000, 1.87829E-002, 195.52250, 0.00000, 0.61101, 0.00000
 Zone Sizing Information, LEVEL 1:4 ROOM, Heating, 55717.89389, 69647.36736, 4.14305, 5.17882, CHICAGO ANN HTG 99.6% CONDNS DB, 1/21 24:00:00, -20.60000, 6.12575E-004, 195.52250, 0.00000, 0.61101, 0.00000
! <System Sizing Information>, System Name, Field Description, Value
 System Sizing Information, LEVEL 1 VAV, Calculated Cooling Design Air Flow Rate [m3/s], 8.88607
 System Sizing Information, LEVEL 1 VAV, User Cooling Design Air Flow Rate [m3/s], 8.88607
 System Sizing Information, LEVEL 1 VAV, Calculated Heating Design Air Flow Rate [m3/s], 27.39659
 System Sizing Information, LEVEL 1 VAV, User Heating Design Air Flow Rate [m3/s], 27.39659
! <Component Sizing Information>, Component Type, Component Name, Input Field Description, Value
 Component Sizing Information, AirTerminal:SingleDuct:VAV:NoReheat, LEVEL 1:2 ROOM VAV NOREHEAT, Design Size Maximum Air Flow Rate [m3/s], 5.17882
 Component Sizing Information, AirTerminal:SingleDuct:VAV:NoReheat, LEVEL 1:2 ROOM VAV NOREHEAT, Design Size Constant Minimum Air Flow Fraction, 0.00000
 Component Sizing Information, AirTerminal:SingleDuct:VAV:NoReheat, LEVEL 1:2 ROOM VAV NOREHEAT, User-Specified Constant Minimum Air Flow Fraction, 0.30000
 Component Sizing Information, AirTerminal:SingleDuct:VAV:NoReheat, LEVEL 1:2 ROOM VAV NOREHEAT, Design Size Minimum Air Flow Rate [m3/s], 1.55364
 Component Sizing Information, AirTerminal:SingleDuct:VAV:NoReheat, LEVEL 1:1 ROOM VAV NOREHEAT, Design Size Maximum Air Flow Rate [m3/s], 13.13560
 Component Sizing Information, AirTerminal:SingleDuct:VAV:NoReheat, LEVEL 1:1 ROOM VAV NOREHEAT, Design Size Constant Minimum Air Flow Fraction, 0.00000
 Component Sizing Information, AirTerminal:SingleDuct:VAV:NoReheat, LEVEL 1:1 ROOM VAV NOREHEAT, User-Specified Constant Minimum Air Flow Fraction, 0.30000
 Component Sizing Information, AirTerminal:SingleDuct:VAV:NoReheat, LEVEL 1:1 ROOM VAV NOREHEAT, Design Size Minimum Air Flow Rate [m3/s], 3.94068
 Component Sizing Information, AirTerminal:SingleDuct:VAV:NoReheat, LEVEL 1:3 ROOM VAV NOREHEAT, Design Size Maximum Air Flow Rate [m3/s], 3.90336
 Component Sizing Information, AirTerminal:SingleDuct:VAV:NoReheat, LEVEL 1:3 ROOM VAV NOREHEAT, Design Size Constant Minimum Air Flow Fraction, 0.00000
 Component Sizing Information, AirTerminal:SingleDuct:VAV:NoReheat, LEVEL 1:3 ROOM VAV NOREHEAT, User-Specified Constant Minimum Air Flow Fraction, 0.30000
 Component Sizing Information, AirTerminal:SingleDuct:VAV:NoReheat, LEVEL 1:3 ROOM VAV NOREHEAT, Design Size Minimum Air Flow Rate [m3/s], 1.17101
 Component Sizing Information, AirTerminal:SingleDuct:VAV:NoReheat, LEVEL 1:4 ROOM VAV NOREHEAT, Design Size Maximum Air Flow Rate [m3/s], 5.17882
 Component Sizing Information, AirTerminal:SingleDuct:VAV:NoReheat, LEVEL 1:4 ROOM VAV NOREHEAT, Design Size Constant Minimum Air Flow Fraction, 0.00000
 Component Sizing Information, AirTerminal:SingleDuct:VAV:NoReheat, LEVEL 1:4 ROOM VAV NOREHEAT, User-Specified Constant Minimum Air Flow Fraction, 0.30000
 Component Sizing Information, AirTerminal:SingleDuct:VAV:NoReheat, LEVEL 1:4 ROOM VAV NOREHEAT, Design Size Minimum Air Flow Rate [m3/s], 1.55365
 Component Sizing Information, AirLoopHVAC, LEVEL 1 VAV, Design Supply Air Flow Rate [m3/s], 27.39659
 Component Sizing Information, Controller:OutdoorAir, LEVEL 1 OA CONTROLLER, Maximum Outdoor Air Flow Rate [m3/s], 27.39659
 Component Sizing Information, Controller:OutdoorAir, LEVEL 1 OA CONTROLLER, Minimum Outdoor Air Flow Rate [m3/s], 3.56936
 Component Sizing Information, Coil:Cooling:Water, LEVEL 1 COOLING COIL, Design Size Design Coil Load [W], 992876.78701
 Component Sizing Information, Coil:Cooling:Water, LEVEL 1 COOLING COIL, Design Size Design Water Flow Rate [m3/s], 4.22386E-002
 Component Sizing Information, Coil:Cooling:Water, LEVEL 1 COOLING COIL, Design Size Design Air Flow Rate [m3/s], 27.39659
 Component Sizing Information, Coil:Cooling:Water, LEVEL 1 COOLING COIL, Design Size Design Inlet Air Temperature [C], 26.30162
 Component Sizing Information, Coil:Cooling:Water, LEVEL 1 COOLING COIL, Design Size Design Inlet Water Temperature [C], 6.70000
 Component Sizing Information, Coil:Cooling:Water, LEVEL 1 COOLING COIL, Design Size Design Outlet Air Temperature [C], 12.80000
 Component Sizing Information, Coil:Cooling:Water, LEVEL 1 COOLING COIL, Design Size Design Inlet Air Humidity Ratio, 1.41917E-002
 Component Sizing Information, Coil:Cooling:Water, LEVEL 1 COOLING COIL, Design Size Design Outlet Air Humidity Ratio, 8.29178E-003
! <Water Cooling Coil Capacity Information>,Component Type,Name,Nominal Total Capacity {W},Nominal Sensible Capacity {W},Nominal Latent Capacity {W},Nominal Sensible Heat Ratio, Nominal Coil UA Value {W/C}, Nominal Coil Surface Area {m2}
Water Cooling Coil Capacity Information,Coil:Cooling:Water,LEVEL 1 COOLING COIL,815426.69,543659.33,271767.36,0.67,88099.35,893.55
 Component Sizing Information, Fan:VariableVolume, LEVEL 1 SUPPLY FAN, Design Size Maximum Flow Rate [m3/s], 27.39659
 Component Sizing Information, Controller:WaterCoil, LEVEL 1 COOLING COIL CONTROLLER, Maximum Actuated Flow [m3/s], 4.22386E-002
 Component Sizing Information, Controller:WaterCoil, LEVEL 1 COOLING COIL CONTROLLER, Controller Convergence Tolerance, 1.12738E-005
 Component Sizing Information, Pump:VariableSpeed, CHILLED WATER LOOP CHILLED WATER SECONDARY PUMP, Initial Design Flow Rate [m3/s], 4.22386E-002
 Component Sizing Information, Pump:VariableSpeed, CHILLED WATER LOOP CHILLED WATER SECONDARY PUMP, Initial Design Power Consumption [W], 10791.41286
 Component Sizing Information, PlantLoop, CHILLED WATER LOOP, Initial Maximum Loop Flow Rate [m3/s], 4.22386E-002
 Component Sizing Information, PlantLoop, CHILLED WATER LOOP, Initial Plant Loop Volume [m3], 31.67893
 Component Sizing Information, Pump:VariableSpeed, CHILLED WATER LOOP CHILLED WATER PRIMARY SUPPLY PUMP, Initial Design Flow Rate [m3/s], 4.22386E-002
 Component Sizing Information, Pump:VariableSpeed, CHILLED WATER LOOP CHILLED WATER PRIMARY SUPPLY PUMP, Initial Design Power Consumption [W], 10791.41286
 Component Sizing Information, Chiller:Electric:EIR, CHILLER%, Initial Design Size Reference Chilled Water Flow Rate [m3/s], 4.22386E-002
 Component Sizing Information, Chiller:Electric:EIR, CHILLER%, Initial Design Size Reference Capacity [W], 992860.23118
 Component Sizing Information, Chiller:Electric:EIR, CHILLER%, Initial Design Size Reference Condenser Fluid Flow Rate [m3/s], 5.01339E-002
 Component Sizing Information, CondenserLoop, CONDENSER WATER LOOP, Initial Maximum Loop Flow Rate [m3/s], 5.01339E-002
 Component Sizing Information, CondenserLoop, CONDENSER WATER LOOP, Initial Condenser Loop Volume [m3], 37.60040
 Component Sizing Information, Pump:VariableSpeed, CONDENSER WATER LOOP CONDENSER WATER SUPPLY PUMP, Initial Design Flow Rate [m3/s], 5.01339E-002
 Component Sizing Information, Pump:VariableSpeed, CONDENSER WATER LOOP CONDENSER WATER SUPPLY PUMP, Initial Design Power Consumption [W], 12808.56138
 Component Sizing Information, CoolingTower:TwoSpeed, TOWER%, Initial Design Water Flow Rate [m3/s], 5.01339E-002
 Component Sizing Information, CoolingTower:TwoSpeed, TOWER%, Initial Fan Power at High Fan Speed [W], 12320.49287
 Component Sizing Information, CoolingTower:TwoSpeed, TOWER%, Initial Air Flow Rate at High Fan Speed [m3/s], 32.48392
 Component Sizing Information, CoolingTower:TwoSpeed, TOWER%, Initial U-Factor Times Area Value at High Fan Speed [W/C], 73238.52911
 Component Sizing Information, CoolingTower:TwoSpeed, TOWER%, Initial Low Fan Speed Air Flow Rate [m3/s], 16.24196
 Component Sizing Information, CoolingTower:TwoSpeed, TOWER%, Initial Fan Power at Low Fan Speed [W], 1971.27886
 Component Sizing Information, CoolingTower:TwoSpeed, TOWER%, Initial U-Factor Times Area Value at Low Fan Speed [W/K], 43943.11747
 Component Sizing Information, CoolingTower:TwoSpeed, TOWER%, Initial Free Convection Regime Air Flow Rate [m3/s], 3.24839
 Component Sizing Information, CoolingTower:TwoSpeed, TOWER%, Initial Free Convection U-Factor Times Area Value [W/K], 7323.85291
! <Environment>,Environment Name,Environment Type, Start Date, End Date, Start DayOfWeek, Duration {#days}, Source:Start DayOfWeek,  Use Daylight Saving, Use Holidays, Apply Weekend Holiday Rule,  Use Rain Values, Use Snow Values
! <Environment:Special Days>, Special Day Name, Special Day Type, Source, Start Date, Duration {#days}
! <Environment:Daylight Saving>, Daylight Saving Indicator, Source, Start Date, End Date
! <Environment:WarmupDays>, NumberofWarmupDays
Environment,SINGAPORE-CHANGI-AP - SGP Custom-486980 WMO#=486980,WeatherFileRunPeriod,01/01,12/12,Sunday,346,Use RunPeriod Specified Day,Yes,Yes,Yes,Yes,Yes
Environment:Daylight Saving,No,
! <Environment:Design Day Data>, Max Dry-Bulb Temp {C}, Temp Range {dC}, Temp Range Ind Type, Hum Ind Value at Max Temp, Hum Ind Type,Pressure {Pa}, Wind Direction {deg CW from N}, Wind Speed {m/s}, Clearness, Rain, Snow
! <Environment:Design_Day_Misc>,DayOfYear,ASHRAE A Coeff,ASHRAE B Coeff,ASHRAE C Coeff,Solar Constant-Annual Variation,Eq of Time {minutes}, Solar Declination Angle {deg}, Solar Model
Environment:Design Day Data,-20.60,0.00,DefaultMultipliers,99063,270,4.9,0.00,No,No
Environment:Design_Day_Misc, 21,1229.0,0.1415,5.7310E-002,1.0,-11.15,-20.1,ASHRAEClearSky
Environment:WarmupDays,  7
! <Warmup Convergence Information>,Zone Name,Environment Type/Name,Average Warmup Temperature Difference {deltaC},Std Dev Warmup Temperature Difference {deltaC},Max Temperature Pass/Fail Convergence,Min Temperature Pass/Fail Convergence,Average Warmup Load Difference {W},Std Dev Warmup Load Difference {W},Heating Load Pass/Fail Convergence,Cooling Load Pass/Fail Convergence
 Warmup Convergence Information,LEVEL 1:2 ROOM,SizingPeriod: CHICAGO ANN HTG 99.6% CONDNS DB HVAC Sizing Pass 1,1.1276193347E-004,2.4684668645E-005,Pass,Pass,3.2685827073E-005,7.1994846639E-006,Pass,Pass
 Warmup Convergence Information,LEVEL 1:1 ROOM,SizingPeriod: CHICAGO ANN HTG 99.6% CONDNS DB HVAC Sizing Pass 1,9.2555676509E-005,2.0810348316E-005,Pass,Pass,2.6812760564E-005,6.0583910519E-006,Pass,Pass
 Warmup Convergence Information,LEVEL 1:3 ROOM,SizingPeriod: CHICAGO ANN HTG 99.6% CONDNS DB HVAC Sizing Pass 1,3.3684861125E-004,6.2054671701E-005,Pass,Pass,9.4393339969E-005,1.7758271809E-005,Pass,Pass
 Warmup Convergence Information,LEVEL 1:4 ROOM,SizingPeriod: CHICAGO ANN HTG 99.6% CONDNS DB HVAC Sizing Pass 1,1.1276199129E-004,2.4684666481E-005,Pass,Pass,3.2685841979E-005,7.1994836668E-006,Pass,Pass
Environment:Design Day Data,31.20,10.70,DefaultMultipliers,99063,230,5.3,1.00,No,No
Environment:Design_Day_Misc,202,1084.4,0.2082,0.1365,1.0,-6.23,20.6,ASHRAEClearSky
Environment:WarmupDays,  6
 Warmup Convergence Information,LEVEL 1:2 ROOM,SizingPeriod: CHICAGO ANN CLG 99.6% CONDNS WB=>MDB HVAC Sizing Pass 1,0.1118953678,8.3018206326E-002,Pass,Pass,2.8834262538E-002,7.0458657953E-002,Pass,Pass
 Warmup Convergence Information,LEVEL 1:1 ROOM,SizingPeriod: CHICAGO ANN CLG 99.6% CONDNS WB=>MDB HVAC Sizing Pass 1,0.1110678931,7.2960807325E-002,Pass,Pass,4.1546217948E-002,8.6351648861E-002,Pass,Pass
 Warmup Convergence Information,LEVEL 1:3 ROOM,SizingPeriod: CHICAGO ANN CLG 99.6% CONDNS WB=>MDB HVAC Sizing Pass 1,9.9858770532E-002,7.6052920099E-002,Pass,Pass,2.7522445789E-002,8.6186699672E-002,Pass,Pass
 Warmup Convergence Information,LEVEL 1:4 ROOM,SizingPeriod: CHICAGO ANN CLG 99.6% CONDNS WB=>MDB HVAC Sizing Pass 1,0.1018604259,6.5625907616E-002,Pass,Pass,3.1987072626E-002,6.1477386962E-002,Pass,Pass
Environment:Design Day Data,-20.60,0.00,DefaultMultipliers,99063,270,4.9,0.00,No,No
Environment:Design_Day_Misc, 21,1229.0,0.1415,5.7310E-002,1.0,-11.15,-20.1,ASHRAEClearSky
 Component Sizing Information, PlantLoop, CHILLED WATER LOOP, Maximum Loop Flow Rate [m3/s], 4.22386E-002
 Component Sizing Information, PlantLoop, CHILLED WATER LOOP, Plant Loop Volume [m3], 31.67893
 Component Sizing Information, CondenserLoop, CONDENSER WATER LOOP, Maximum Loop Flow Rate [m3/s], 5.01339E-002
 Component Sizing Information, CondenserLoop, CONDENSER WATER LOOP, Condenser Loop Volume [m3], 37.60040
 Component Sizing Information, Pump:VariableSpeed, CHILLED WATER LOOP CHILLED WATER SECONDARY PUMP, Design Flow Rate [m3/s], 4.22386E-002
 Component Sizing Information, Pump:VariableSpeed, CHILLED WATER LOOP CHILLED WATER SECONDARY PUMP, Design Power Consumption [W], 10791.41286
 Component Sizing Information, Chiller:Electric:EIR, CHILLER%, Design Size Reference Chilled Water Flow Rate [m3/s], 4.22386E-002
 Component Sizing Information, Chiller:Electric:EIR, CHILLER%, Design Size Reference Capacity [W], 992860.23118
 Component Sizing Information, Chiller:Electric:EIR, CHILLER%, Design Size Reference Condenser Fluid Flow Rate [m3/s], 5.01339E-002
! <Chiller Standard Rating Information>, Component Type, Component Name, IPLV in SI Units {W/W}, IPLV in IP Units {Btu/W-h}
 Chiller Standard Rating Information, Chiller:Electric:EIR, CHILLER%, 3.47, 11.83
 Component Sizing Information, Pump:VariableSpeed, CHILLED WATER LOOP CHILLED WATER PRIMARY SUPPLY PUMP, Design Flow Rate [m3/s], 4.22386E-002
 Component Sizing Information, Pump:VariableSpeed, CHILLED WATER LOOP CHILLED WATER PRIMARY SUPPLY PUMP, Design Power Consumption [W], 10791.41286
 Component Sizing Information, CoolingTower:TwoSpeed, TOWER%, Design Water Flow Rate [m3/s], 5.01339E-002
 Component Sizing Information, CoolingTower:TwoSpeed, TOWER%, Fan Power at High Fan Speed [W], 12320.49287
 Component Sizing Information, CoolingTower:TwoSpeed, TOWER%, Air Flow Rate at High Fan Speed [m3/s], 32.48392
 Component Sizing Information, CoolingTower:TwoSpeed, TOWER%, U-Factor Times Area Value at High Fan Speed [W/C], 73238.52911
 Component Sizing Information, CoolingTower:TwoSpeed, TOWER%, Low Fan Speed Air Flow Rate [m3/s], 16.24196
 Component Sizing Information, CoolingTower:TwoSpeed, TOWER%, Fan Power at Low Fan Speed [W], 1971.27886
 Component Sizing Information, CoolingTower:TwoSpeed, TOWER%, U-Factor Times Area Value at Low Fan Speed [W/K], 43943.11747
 Component Sizing Information, CoolingTower:TwoSpeed, TOWER%, Free Convection Regime Air Flow Rate [m3/s], 3.24839
 Component Sizing Information, CoolingTower:TwoSpeed, TOWER%, Free Convection U-Factor Times Area Value [W/K], 7323.85291
 Component Sizing Information, Pump:VariableSpeed, CONDENSER WATER LOOP CONDENSER WATER SUPPLY PUMP, Design Flow Rate [m3/s], 5.01339E-002
 Component Sizing Information, Pump:VariableSpeed, CONDENSER WATER LOOP CONDENSER WATER SUPPLY PUMP, Design Power Consumption [W], 12808.56138
Environment:Design Day Data,31.20,10.70,DefaultMultipliers,99063,230,5.3,1.00,No,No
Environment:Design_Day_Misc,202,1084.4,0.2082,0.1365,1.0,-6.23,20.6,ASHRAEClearSky
Environment,SINGAPORE-CHANGI-AP - SGP Custom-486980 WMO#=486980,WeatherFileRunPeriod,01/01,12/12,Sunday,346,Use RunPeriod Specified Day,Yes,Yes,Yes,Yes,Yes
Environment:Design Day Data,-20.60,0.00,DefaultMultipliers,99063,270,4.9,0.00,No,No
Environment:Design_Day_Misc, 21,1229.0,0.1415,5.7310E-002,1.0,-11.15,-20.1,ASHRAEClearSky
Environment:Design Day Data,31.20,10.70,DefaultMultipliers,99063,230,5.3,1.00,No,No
Environment:Design_Day_Misc,202,1084.4,0.2082,0.1365,1.0,-6.23,20.6,ASHRAEClearSky
Environment,SINGAPORE-CHANGI-AP - SGP Custom-486980 WMO#=486980,WeatherFileRunPeriod,01/01,12/12,Sunday,346,Use RunPeriod Specified Day,Yes,Yes,Yes,Yes,Yes
Environment:Daylight Saving,No,
Environment:WarmupDays,  6
 Warmup Convergence Information,LEVEL 1:2 ROOM,RunPeriod: SINGAPORE-CHANGI-AP - SGP Custom-486980 WMO#=486980,2.3384218583E-002,2.0068387286E-002,Pass,Pass,0.0000000000,0.0000000000,Pass,Pass
 Warmup Convergence Information,LEVEL 1:1 ROOM,RunPeriod: SINGAPORE-CHANGI-AP - SGP Custom-486980 WMO#=486980,3.2426844242E-002,2.9570831550E-002,Pass,Pass,0.0000000000,0.0000000000,Pass,Pass
 Warmup Convergence Information,LEVEL 1:3 ROOM,RunPeriod: SINGAPORE-CHANGI-AP - SGP Custom-486980 WMO#=486980,2.1005529348E-002,1.8260139204E-002,Pass,Pass,0.0000000000,0.0000000000,Pass,Pass
 Warmup Convergence Information,LEVEL 1:4 ROOM,RunPeriod: SINGAPORE-CHANGI-AP - SGP Custom-486980 WMO#=486980,2.8168118746E-002,2.5221046565E-002,Pass,Pass,0.0000000000,0.0000000000,Pass,Pass
! <Program Control Information:Threads/Parallel Sims>, Threading Supported,Maximum Number of Threads, Env Set Threads (OMP_NUM_THREADS), EP Env Set Threads (EP_OMP_NUM_THREADS), IDF Set Threads, Number of Threads Used (Interior Radiant Exchange), Number Nominal Surfaces, Number Parallel Sims
Program Control:Threads/Parallel Sims, No,1, N/A, N/A, N/A, N/A, N/A, N/A
End of Data
