Program Version,EnergyPlus, Version 8.6.0-198c6a3cff, YMD=2018.12.24 22:54
! <Version>, Version ID
 Version, 8.6
! <Timesteps per Hour>, #TimeSteps, Minutes per TimeStep {minutes}
 Timesteps per Hour,  6, 10
! <System Convergence Limits>, Minimum System TimeStep {minutes}, Max HVAC Iterations, Minimum Plant Iterations, Maximum Plant Iterations
 System Convergence Limits, 1, 20, 2, 8
! <Simulation Control>, Do Zone Sizing, Do System Sizing, Do Plant Sizing, Do Design Days, Do Weather Simulation, Do HVAC Sizing Simulation
 Simulation Control, Yes, Yes, Yes, No, Yes, Yes
! <Output Reporting Tolerances>, Tolerance for Time Heating Setpoint Not Met, Tolerance for Zone Cooling Setpoint Not Met Time
 Output Reporting Tolerances, 0.200, 0.200, 
! <Site:GroundTemperature:BuildingSurface>, Months From Jan to Dec {C}
 Site:GroundTemperature:BuildingSurface,  19.53,  19.50,  19.54,  19.60,  20.00,  21.64,  22.23,  22.38,  21.45,  20.12,  19.80,  19.63
! <Site:GroundTemperature:FCfactorMethod>, Months From Jan to Dec {C}
 Site:GroundTemperature:FCfactorMethod,  28.08,  28.56,  28.97,  29.20,  29.37,  29.21,  28.85,  28.38,  27.93,  27.63,  27.55,  27.71
! <Site:GroundTemperature:Shallow>, Months From Jan to Dec {C}
 Site:GroundTemperature:Shallow,  13.00,  13.00,  13.00,  13.00,  13.00,  13.00,  13.00,  13.00,  13.00,  13.00,  13.00,  13.00
! <Site:GroundTemperature:Deep>, Months From Jan to Dec {C}
 Site:GroundTemperature:Deep,  16.00,  16.00,  16.00,  16.00,  16.00,  16.00,  16.00,  16.00,  16.00,  16.00,  16.00,  16.00
! <Site:GroundReflectance>, Months From Jan to Dec {dimensionless}
 Site:GroundReflectance,  0.20,  0.20,  0.20,  0.20,  0.20,  0.20,  0.20,  0.20,  0.20,  0.20,  0.20,  0.20
! <Site:GroundReflectance:SnowModifier>, Normal, Daylighting {dimensionless}
 Site:GroundReflectance:SnowModifier,   1.000,   1.000
! <Site:GroundReflectance:Snow>, Months From Jan to Dec {dimensionless}
 Site:GroundReflectance:Snow,  0.20,  0.20,  0.20,  0.20,  0.20,  0.20,  0.20,  0.20,  0.20,  0.20,  0.20,  0.20
! <Site:GroundReflectance:Snow:Daylighting>, Months From Jan to Dec {dimensionless}
 Site:GroundReflectance:Snow:Daylighting,  0.20,  0.20,  0.20,  0.20,  0.20,  0.20,  0.20,  0.20,  0.20,  0.20,  0.20,  0.20
! <Environment:Weather Station>,Wind Sensor Height Above Ground {m},Wind Speed Profile Exponent {},Wind Speed Profile Boundary Layer Thickness {m},Air Temperature Sensor Height Above Ground {m},Wind Speed Modifier Coefficient [Internal],Temperature Modifier Coefficient [Internal]
Environment:Weather Station,10.000,0.140,270.000,1.500,1.586,9.750E-003
! <Site:Location>, Location Name, Latitude {N+/S- Deg}, Longitude {E+/W- Deg},  Time Zone Number {GMT+/-}, Elevation {m},  Standard Pressure at Elevation {Pa}, Standard RhoAir at Elevation
Site:Location,SINGAPORE-CHANGI-AP - SGP Custom-486980 WMO#=486980,1.37,103.98,7.00,16.00,101133,1.2020
! <Building Information>, Building Name,North Axis {deg},Terrain,  Loads Convergence Tolerance Value,Temperature Convergence Tolerance Value,  Solar Distribution,Maximum Number of Warmup Days,Minimum Number of Warmup Days
 Building Information,bldg-1,0.000,City,4.00000E-002,0.40000,FullExterior,25,6
! <Inside Convection Algorithm>, Algorithm {Simple | TARP | CeilingDiffuser | AdaptiveConvectionAlgorithm}
Inside Convection Algorithm,TARP
! <Outside Convection Algorithm>, Algorithm {SimpleCombined | TARP | MoWitt | DOE-2 | AdaptiveConvectionAlgorithm}
Outside Convection Algorithm,DOE-2
! <Sky Radiance Distribution>, Value {Anisotropic}
Sky Radiance Distribution,Anisotropic
! <Zone Air Solution Algorithm>, Value {ThirdOrderBackwardDifference | AnalyticalSolution | EulerMethod}
 Zone Air Solution Algorithm, ThirdOrderBackwardDifference
! <Zone Air Carbon Dioxide Balance Simulation>, Simulation {Yes/No}, Carbon Dioxide Concentration
 Zone Air Carbon Dioxide Balance Simulation, No,N/A
! <Zone Air Generic Contaminant Balance Simulation>, Simulation {Yes/No}, Generic Contaminant Concentration
 Zone Air Generic Contaminant Balance Simulation, No,N/A
! <Zone Air Mass Flow Balance Simulation>, Enforce Mass Balance, Adjust Zone Mixing, Adjust Zone Infiltration {AddInfiltration | AdjustInfiltration | None}, Infiltration Zones {MixingSourceZonesOnly | AllZones}
 Zone Air Mass Flow Balance Simulation, No,N/A,N/A,N/A
! <Environment:Site Atmospheric Variation>,Wind Speed Profile Exponent {},Wind Speed Profile Boundary Layer Thickness {m},Air Temperature Gradient Coefficient {K/m}
Environment:Site Atmospheric Variation,0.330,460.000,6.500000E-003
! <SurfaceGeometry>,Starting Corner,Vertex Input Direction,Coordinate System,Daylight Reference Point Coordinate System,Rectangular (Simple) Surface Coordinate System
 Surface Geometry,LowerLeftCorner,Counterclockwise,RelativeCoordinateSystem,RelativeCoordinateSystem,RelativeToZoneOrigin
! <Surface Heat Transfer Algorithm>, Value {CTF - ConductionTransferFunction | EMPD - MoisturePenetrationDepthConductionTransferFunction | CondFD - ConductionFiniteDifference | HAMT - CombinedHeatAndMoistureFiniteElement} - Description,Inside Surface Max Temperature Limit{C}, Surface Convection Coefficient Lower Limit {W/m2-K}, Surface Convection Coefficient Upper Limit {W/m2-K}
Surface Heat Transfer Algorithm, CTF - ConductionTransferFunction,2000,0.10,1000.0
! <Shading Summary>, Number of Fixed Detached Shades, Number of Building Detached Shades, Number of Attached Shades
 Shading Summary,0,86,0
! <Zone Summary>, Number of Zones, Number of Zone Surfaces, Number of SubSurfaces
 Zone Summary,109,2356,168
! <Zone Information>,Zone Name,North Axis {deg},Origin X-Coordinate {m},Origin Y-Coordinate {m},Origin Z-Coordinate {m},Centroid X-Coordinate {m},Centroid Y-Coordinate {m},Centroid Z-Coordinate {m},Type,Zone Multiplier,Zone List Multiplier,Minimum X {m},Maximum X {m},Minimum Y {m},Maximum Y {m},Minimum Z {m},Maximum Z {m},Ceiling Height {m},Volume {m3},Zone Inside Convection Algorithm {Simple-Detailed-CeilingDiffuser-TrombeWall},Zone Outside Convection Algorithm {Simple-Detailed-Tarp-MoWitt-DOE-2-BLAST}, Floor Area {m2},Exterior Gross Wall Area {m2},Exterior Net Wall Area {m2},Exterior Window Area {m2}, Number of Surfaces, Number of SubSurfaces, Number of Shading SubSurfaces,  Part of Total Building Area
 Zone Information, 2ND STORY_A:384 ROOM,0.0,0.00,0.00,0.00,158.45,261.95,7.53,1,1,1,156.69,160.34,260.70,263.34,5.50,9.50,4.00,24.92,TARP,DOE-2,8.00,9.74,9.74,0.00,16,0,0,Yes
 Zone Information, 2ND STORY_A:359 ROOM,0.0,0.00,0.00,0.00,152.08,260.29,7.54,1,1,1,144.95,158.36,257.14,263.14,5.50,9.50,4.00,213.07,TARP,DOE-2,61.93,47.10,22.49,24.61,19,1,0,Yes
 Zone Information, 3RD STOREY:415 ROOM,0.0,0.00,0.00,0.00,184.01,296.52,13.71,1,1,1,175.99,195.01,284.56,305.28,11.50,15.80,6.44,765.65,TARP,DOE-2,204.45,237.35,117.14,120.21,102,18,0,Yes
 Zone Information, 3RD STORY_A:419 ROOM,0.0,0.00,0.00,0.00,155.62,267.40,12.67,1,1,1,153.87,157.18,265.51,269.20,9.50,15.78,2.86,37.12,TARP,DOE-2,10.29,30.12,24.08,6.04,16,8,0,Yes
 Zone Information, 2ND STOREY:197 ROOM,0.0,0.00,0.00,0.00,185.21,297.78,9.55,1,1,1,175.99,195.01,291.59,304.26,7.50,11.50,8.42,523.80,TARP,DOE-2,149.97,123.94,48.17,75.77,67,9,0,Yes
 Zone Information, 2ND STOREY:206 ROOM,0.0,0.00,0.00,0.00,142.94,282.94,9.50,1,1,1,141.63,144.25,282.38,283.49,7.50,11.50,4.00,8.30,TARP,DOE-2,2.68,10.34,10.34,0.00,8,0,0,Yes
 Zone Information, LOWER 1ST STOREY:354 ROOM,0.0,0.00,0.00,0.00,157.19,259.89,2.81,1,1,1,154.26,160.78,256.60,263.09,0.00,5.50,3.78E-002,140.86,TARP,DOE-2,29.43,24.96,24.96,0.00,19,0,0,Yes
 Zone Information, LOWER 1ST STOREY:127 ROOM,0.0,0.00,0.00,0.00,142.33,252.91,2.75,1,1,1,139.39,146.22,249.91,255.82,0.00,5.50,5.50,167.59,TARP,DOE-2,34.60,35.70,35.70,0.00,12,0,0,Yes
 Zone Information, 2ND STORY_A:371 ROOM,0.0,0.00,0.00,0.00,151.69,255.38,7.55,1,1,1,139.07,165.64,250.03,261.05,5.50,9.50,4.00,577.45,TARP,DOE-2,166.29,145.00,55.67,89.33,35,3,0,Yes
 Zone Information, 1ST STOREY:126 ROOM,0.0,0.00,0.00,0.00,145.79,299.13,5.50,1,1,1,144.88,146.70,298.61,299.67,3.50,7.50,4.00,4.38,TARP,DOE-2,1.48,6.94,6.94,0.00,7,0,0,Yes
 Zone Information, 3RD STOREY:318 ROOM,0.0,0.00,0.00,0.00,199.32,300.38,13.65,1,1,1,198.05,200.62,297.74,302.81,11.50,15.80,13.57,34.41,TARP,DOE-2,9.66,20.95,20.95,0.00,10,0,0,Yes
 Zone Information, 1ST STOREY:420 ROOM,0.0,0.00,0.00,0.00,145.44,293.68,5.63,1,1,1,143.99,146.73,291.18,296.31,3.50,7.50,4.00,36.58,TARP,DOE-2,10.74,19.42,2.60,16.82,13,1,0,Yes
 Zone Information, 2ND STOREY:194 ROOM,0.0,0.00,0.00,0.00,197.18,298.38,9.54,1,1,1,194.27,200.61,296.95,299.88,7.50,11.50,4.00,40.50,TARP,DOE-2,12.21,7.66,7.66,0.00,16,0,0,Yes
 Zone Information, 2ND STORY_A:367 ROOM,0.0,0.00,0.00,0.00,135.67,258.57,7.50,1,1,1,132.71,139.27,256.08,261.58,5.50,9.50,4.00,104.83,TARP,DOE-2,30.50,44.94,44.94,0.00,13,0,0,Yes
 Zone Information, 3RD STOREY:291 ROOM,0.0,0.00,0.00,0.00,144.76,281.83,13.65,1,1,1,144.04,145.41,280.13,283.52,11.50,15.80,4.30,13.27,TARP,DOE-2,4.25,5.45,5.45,0.00,12,0,0,Yes
 Zone Information, 3RD STOREY:320 ROOM,0.0,0.00,0.00,0.00,197.71,295.74,13.65,1,1,1,194.64,201.04,293.80,297.11,11.50,15.80,4.30,57.83,TARP,DOE-2,16.70,37.06,37.06,0.00,11,0,0,Yes
 Zone Information, LOWER 1ST STOREY:143 ROOM,0.0,0.00,0.00,0.00,145.96,260.09,2.75,1,1,1,142.80,149.16,257.74,262.45,0.00,5.50,5.50,123.08,TARP,DOE-2,25.31,33.13,33.13,0.00,10,0,0,Yes
 Zone Information, 2ND STOREY:392 ROOM,0.0,0.00,0.00,0.00,183.27,279.05,9.52,1,1,1,174.79,196.26,272.80,284.85,7.50,11.50,4.00,738.98,TARP,DOE-2,211.33,168.93,62.18,106.76,75,11,0,Yes
 Zone Information, 2ND STOREY:249 ROOM,0.0,0.00,0.00,0.00,193.00,281.34,9.50,1,1,1,191.97,194.04,280.31,282.37,7.50,11.50,4.00,13.01,TARP,DOE-2,4.04,0.00,0.00,0.00,8,0,0,Yes
 Zone Information, 3RD STOREY:308 ROOM,0.0,0.00,0.00,0.00,146.97,296.53,13.65,1,1,1,146.52,147.43,295.23,297.84,11.50,15.80,4.30,4.80,TARP,DOE-2,1.56,0.00,0.00,0.00,6,0,0,Yes
 Zone Information, 1ST STOREY:236 ROOM,0.0,0.00,0.00,0.00,146.81,291.05,5.50,1,1,1,144.52,149.26,290.36,291.74,3.50,7.50,4.00,9.37,TARP,DOE-2,3.50,3.28,3.28,0.00,12,0,0,Yes
 Zone Information, 1ST STOREY:123 ROOM,0.0,0.00,0.00,0.00,147.90,289.70,5.56,1,1,1,144.62,150.95,287.73,291.09,3.50,7.50,4.00,53.23,TARP,DOE-2,16.39,34.82,34.82,0.00,13,0,0,Yes
 Zone Information, 1ST STOREY:44 ROOM,0.0,0.00,0.00,0.00,156.38,277.85,5.54,1,1,1,140.09,168.26,271.89,284.13,3.50,7.50,3.99,1004.21,TARP,DOE-2,287.27,216.78,121.15,95.63,44,4,0,Yes
 Zone Information, 3RD STOREY:310 ROOM,0.0,0.00,0.00,0.00,147.83,289.78,13.65,1,1,1,144.62,150.96,287.72,291.61,11.50,15.80,4.30,59.66,TARP,DOE-2,17.16,37.49,37.49,0.00,13,0,0,Yes
 Zone Information, 1ST STOREY:99 ROOM,0.0,0.00,0.00,0.00,187.82,295.18,5.54,1,1,1,184.90,190.20,292.74,298.07,3.50,7.50,4.00,76.28,TARP,DOE-2,22.77,27.62,27.62,0.00,12,0,0,Yes
 Zone Information, 3RD STORY_A:380 ROOM,0.0,0.00,0.00,0.00,151.47,257.80,11.65,1,1,1,135.09,166.95,250.00,263.99,9.50,13.80,10.70,1168.00,TARP,DOE-2,311.52,241.70,114.97,126.73,49,5,0,Yes
 Zone Information, LOWER 1ST STOREY:129 ROOM,0.0,0.00,0.00,0.00,149.73,254.95,2.75,1,1,1,148.08,151.38,253.61,256.29,0.00,5.50,5.50,35.18,TARP,DOE-2,7.49,0.00,0.00,0.00,6,0,0,Yes
 Zone Information, LOWER 1ST STOREY:134 ROOM,0.0,0.00,0.00,0.00,140.93,259.64,2.75,1,1,1,138.63,143.16,257.38,261.93,0.00,5.50,5.50,84.80,TARP,DOE-2,17.57,23.00,23.00,0.00,11,0,0,Yes
 Zone Information, 2ND STOREY:223 ROOM,0.0,0.00,0.00,0.00,141.73,273.35,9.60,1,1,1,138.33,144.45,271.62,274.96,7.50,11.50,3.75,55.42,TARP,DOE-2,17.11,34.80,34.80,0.00,13,0,0,Yes
 Zone Information, 3RD STOREY:309 ROOM,0.0,0.00,0.00,0.00,145.46,295.73,13.65,1,1,1,143.55,147.12,291.18,299.75,11.50,15.80,4.30,73.58,TARP,DOE-2,20.49,49.91,49.91,0.00,15,0,0,Yes
 Zone Information, 2ND STOREY:169 ROOM,0.0,0.00,0.00,0.00,147.69,292.40,9.50,1,1,1,144.38,150.64,291.19,293.82,7.50,11.50,4.00,40.02,TARP,DOE-2,12.06,7.67,7.67,0.00,17,0,0,Yes
 Zone Information, 3RD STOREY:305 ROOM,0.0,0.00,0.00,0.00,146.81,291.05,13.65,1,1,1,144.52,149.25,290.36,291.73,11.50,15.80,4.30,9.95,TARP,DOE-2,3.47,4.00,4.00,0.00,14,0,0,Yes
 Zone Information, 2ND STOREY:234 ROOM,0.0,0.00,0.00,0.00,156.99,278.14,9.53,1,1,1,140.17,168.24,271.89,284.13,7.50,11.50,3.38,992.85,TARP,DOE-2,283.63,217.28,80.42,136.86,80,12,0,Yes
 Zone Information, 2ND STOREY:240 ROOM,0.0,0.00,0.00,0.00,146.78,291.00,9.50,1,1,1,144.52,149.25,290.27,291.74,7.50,11.50,4.00,10.85,TARP,DOE-2,3.93,3.68,3.68,0.00,16,0,0,Yes
 Zone Information, 2ND STOREY:252 ROOM,0.0,0.00,0.00,0.00,195.96,276.32,9.50,1,1,1,193.62,198.30,275.85,276.79,7.50,11.50,4.00,10.39,TARP,DOE-2,3.80,3.26,3.26,0.00,11,0,0,Yes
 Zone Information, 1ST STOREY:103 ROOM,0.0,0.00,0.00,0.00,190.73,299.42,5.57,1,1,1,189.10,192.36,295.54,303.34,3.50,7.50,4.00,56.09,TARP,DOE-2,17.90,49.19,49.19,0.00,11,0,0,Yes
 Zone Information, LOWER 1ST STOREY:142 ROOM,0.0,0.00,0.00,0.00,142.83,255.96,2.82,1,1,1,133.07,154.81,252.70,258.75,0.00,5.50,5.50,286.36,TARP,DOE-2,58.90,22.97,2.43,20.55,30,1,0,Yes
 Zone Information, LOWER 1ST STOREY:135 ROOM,0.0,0.00,0.00,0.00,135.56,259.12,2.93,1,1,1,132.71,139.00,256.86,261.56,0.00,5.50,2.09E-002,121.54,TARP,DOE-2,25.00,55.83,55.83,0.00,8,0,0,Yes
 Zone Information, 1ST STOREY:34 ROOM,0.0,0.00,0.00,0.00,140.63,279.77,5.14,1,1,1,138.07,144.35,275.07,283.40,3.50,7.50,4.00,108.54,TARP,DOE-2,31.63,45.47,28.73,16.74,14,1,0,Yes
 Zone Information, 3RD STOREY:410 ROOM,0.0,0.00,0.00,0.00,155.06,294.56,13.67,1,1,1,146.05,164.04,288.56,300.67,11.50,15.80,5.77,529.77,TARP,DOE-2,141.36,135.15,46.46,88.69,89,12,0,Yes
 Zone Information, 3RD STOREY:319 ROOM,0.0,0.00,0.00,0.00,198.41,297.27,13.65,1,1,1,195.98,200.73,296.60,297.98,11.50,15.80,13.61,11.76,TARP,DOE-2,3.97,3.98,3.98,0.00,12,0,0,Yes
 Zone Information, 3RD STOREY:347 ROOM,0.0,0.00,0.00,0.00,198.41,304.48,13.65,1,1,1,196.35,200.04,302.69,306.14,11.50,15.80,13.58,27.46,TARP,DOE-2,7.84,28.63,28.63,0.00,9,0,0,Yes
 Zone Information, 3RD STOREY:414 ROOM,0.0,0.00,0.00,0.00,154.97,286.71,13.73,1,1,1,152.68,156.74,283.77,289.22,11.50,15.80,13.50,58.49,TARP,DOE-2,16.46,46.68,32.37,14.31,45,5,0,Yes
 Zone Information, 2ND STOREY:417 ROOM,0.0,0.00,0.00,0.00,151.15,297.10,9.56,1,1,1,149.31,153.84,293.81,300.50,7.50,11.50,4.09,81.05,TARP,DOE-2,24.01,14.30,6.56,7.74,17,1,0,Yes
 Zone Information, 2ND STORY_A:370 ROOM,0.0,0.00,0.00,0.00,142.16,258.72,7.50,1,1,1,141.07,143.26,257.63,259.82,5.50,9.50,4.00,13.13,TARP,DOE-2,4.08,0.00,0.00,0.00,8,0,0,Yes
 Zone Information, 3RD STOREY:298 ROOM,0.0,0.00,0.00,0.00,195.79,281.71,13.65,1,1,1,192.02,199.65,278.54,285.06,11.50,15.80,10.09,172.56,TARP,DOE-2,47.10,59.23,59.23,0.00,10,0,0,Yes
 Zone Information, 2ND STORY_A:376 ROOM,0.0,0.00,0.00,0.00,166.66,262.63,7.50,1,1,1,165.86,167.45,261.09,264.07,5.50,9.50,4.00,8.15,TARP,DOE-2,2.66,16.10,16.10,0.00,8,0,0,Yes
 Zone Information, 3RD STORY_A:381 ROOM,0.0,0.00,0.00,0.00,139.52,259.94,11.65,1,1,1,138.85,140.19,258.23,261.64,9.50,13.80,4.30,11.78,TARP,DOE-2,3.51,4.53,4.53,0.00,6,0,0,Yes
 Zone Information, 2ND STORY_A:365 ROOM,0.0,0.00,0.00,0.00,135.70,252.65,7.50,1,1,1,133.41,138.13,252.03,253.25,5.50,9.50,4.00,9.29,TARP,DOE-2,3.47,3.26,3.26,0.00,14,0,0,Yes
 Zone Information, 2ND STOREY:408 ROOM,0.0,0.00,0.00,0.00,183.10,288.63,9.58,1,1,1,181.19,185.00,284.53,292.68,7.50,11.50,4.00,85.74,TARP,DOE-2,25.48,63.03,41.12,21.91,30,6,0,Yes
 Zone Information, 2ND STOREY:342 ROOM,0.0,0.00,0.00,0.00,154.95,286.75,9.58,1,1,1,152.68,156.74,283.77,289.22,7.50,11.50,4.00,54.92,TARP,DOE-2,16.60,43.50,29.19,14.31,34,5,0,Yes
 Zone Information, 2ND STOREY:168 ROOM,0.0,0.00,0.00,0.00,146.99,296.56,9.50,1,1,1,143.53,150.29,293.09,300.07,7.50,11.50,4.00,124.81,TARP,DOE-2,36.42,49.83,49.83,0.00,24,0,0,Yes
 Zone Information, 2ND STOREY:176 ROOM,0.0,0.00,0.00,0.00,193.24,303.68,9.50,1,1,1,192.47,194.01,301.95,305.42,7.50,11.50,4.00,11.02,TARP,DOE-2,3.86,4.60,4.60,0.00,6,0,0,Yes
 Zone Information, 2ND STOREY:209 ROOM,0.0,0.00,0.00,0.00,144.77,281.82,9.50,1,1,1,144.22,145.34,280.14,283.52,7.50,11.50,4.00,10.78,TARP,DOE-2,3.45,4.12,4.12,0.00,8,0,0,Yes
 Zone Information, 2ND STOREY:242 ROOM,0.0,0.00,0.00,0.00,198.34,297.29,9.50,1,1,1,195.98,200.71,296.60,297.98,7.50,11.50,4.00,10.10,TARP,DOE-2,3.83,3.28,3.28,0.00,7,0,0,Yes
 Zone Information, 3RD STOREY:300 ROOM,0.0,0.00,0.00,0.00,195.60,274.86,13.74,1,1,1,192.26,199.81,273.15,276.36,11.50,15.80,11.80,70.93,TARP,DOE-2,20.36,43.06,43.06,0.00,14,0,0,Yes
 Zone Information, 1ST STOREY:122 ROOM,0.0,0.00,0.00,0.00,172.19,298.23,5.54,1,1,1,157.99,189.33,290.47,304.83,3.50,7.50,2.19,779.73,TARP,DOE-2,224.05,161.79,74.20,87.59,73,2,0,Yes
 Zone Information, 3RD STORY_A:382 ROOM,0.0,0.00,0.00,0.00,166.74,263.12,11.65,1,1,1,166.13,167.30,262.14,264.06,9.50,13.80,4.30,4.67,TARP,DOE-2,1.48,11.79,11.79,0.00,7,0,0,Yes
 Zone Information, 2ND STORY_A:385 ROOM,0.0,0.00,0.00,0.00,163.80,261.55,7.57,1,1,1,160.13,166.75,258.70,263.99,5.50,9.50,4.02,77.20,TARP,DOE-2,23.02,46.66,31.90,14.76,21,3,0,Yes
 Zone Information, 1ST STOREY:113 ROOM,0.0,0.00,0.00,0.00,145.23,297.85,5.50,1,1,1,143.54,147.00,296.14,299.46,3.50,7.50,4.00,24.82,TARP,DOE-2,7.59,14.27,14.27,0.00,12,0,0,Yes
 Zone Information, 1ST STOREY:125 ROOM,0.0,0.00,0.00,0.00,148.28,298.24,5.50,1,1,1,146.60,149.84,296.39,300.01,3.50,7.50,4.00,31.58,TARP,DOE-2,9.46,11.46,11.46,0.00,8,0,0,Yes
 Zone Information, 3RD STOREY:411 ROOM,0.0,0.00,0.00,0.00,158.69,278.32,13.74,1,1,1,144.14,168.24,271.89,284.12,11.50,15.80,4.31,1133.22,TARP,DOE-2,268.40,217.74,112.22,105.52,79,11,0,Yes
 Zone Information, 3RD STOREY:293 ROOM,0.0,0.00,0.00,0.00,196.76,276.31,13.65,1,1,1,193.64,199.73,275.84,276.83,11.50,15.80,11.02,15.18,TARP,DOE-2,5.11,3.94,3.94,0.00,10,0,0,Yes
 Zone Information, 3RD STORY_A:387 ROOM,0.0,0.00,0.00,0.00,158.43,262.03,11.65,1,1,1,156.68,160.34,260.70,263.34,9.50,13.80,11.53,27.14,TARP,DOE-2,8.11,12.28,12.28,0.00,13,0,0,Yes
 Zone Information, 3RD STOREY:284 ROOM,0.0,0.00,0.00,0.00,139.87,274.69,13.65,1,1,1,136.91,143.01,274.13,275.22,11.50,15.80,11.09,15.18,TARP,DOE-2,5.11,3.94,3.94,0.00,12,0,0,Yes
 Zone Information, 3RD STOREY:316 ROOM,0.0,0.00,0.00,0.00,193.25,303.68,13.65,1,1,1,192.47,194.03,301.95,305.42,11.50,15.80,13.51,12.02,TARP,DOE-2,3.91,5.01,5.01,0.00,7,0,0,Yes
 Zone Information, 2ND STOREY:181 ROOM,0.0,0.00,0.00,0.00,197.38,299.99,9.50,1,1,1,196.73,198.02,299.45,300.52,7.50,11.50,4.00,3.23,TARP,DOE-2,1.11,0.00,0.00,0.00,6,0,0,Yes
 Zone Information, LOWER 1ST STOREY:144 ROOM,0.0,0.00,0.00,0.00,151.71,260.60,2.75,1,1,1,148.80,154.62,258.27,262.93,0.00,5.50,5.50,111.72,TARP,DOE-2,23.01,30.12,30.12,0.00,7,0,0,Yes
 Zone Information, 1ST STOREY:348 ROOM,0.0,0.00,0.00,0.00,154.85,294.23,4.90,1,1,1,146.24,164.08,288.55,300.67,3.50,7.50,4.00,463.13,TARP,DOE-2,133.49,115.69,83.42,32.26,64,3,0,Yes
 Zone Information, 3RD STORY_A:378 ROOM,0.0,0.00,0.00,0.00,136.88,251.30,11.74,1,1,1,133.51,139.68,249.38,253.06,9.50,13.80,4.30,56.82,TARP,DOE-2,16.41,36.69,36.69,0.00,12,0,0,Yes
 Zone Information, 2ND STOREY:245 ROOM,0.0,0.00,0.00,0.00,197.15,302.27,9.50,1,1,1,193.61,200.38,299.15,306.14,7.50,11.50,4.00,125.23,TARP,DOE-2,37.07,49.44,49.44,0.00,14,0,0,Yes
 Zone Information, 2ND STOREY:251 ROOM,0.0,0.00,0.00,0.00,195.73,281.41,9.50,1,1,1,191.90,198.18,276.74,285.02,7.50,11.50,4.00,104.95,TARP,DOE-2,30.85,57.52,57.52,0.00,14,0,0,Yes
 Zone Information, 3RD STOREY:283 ROOM,0.0,0.00,0.00,0.00,140.47,280.23,13.65,1,1,1,136.68,144.22,276.97,283.48,11.50,15.80,11.64,170.32,TARP,DOE-2,46.51,58.82,58.82,0.00,13,0,0,Yes
 Zone Information, 3RD STOREY:405 ROOM,0.0,0.00,0.00,0.00,155.29,270.77,13.65,1,1,1,153.35,157.05,268.92,272.24,11.50,15.80,4.30,38.03,TARP,DOE-2,10.66,27.33,18.83,8.50,31,11,0,Yes
 Zone Information, 3RD STORY_A:377 ROOM,0.0,0.00,0.00,0.00,135.48,257.50,11.65,1,1,1,132.71,139.25,252.84,261.55,9.50,13.80,11.53,129.09,TARP,DOE-2,35.22,61.80,61.80,0.00,12,0,0,Yes
 Zone Information, 2ND STOREY:241 ROOM,0.0,0.00,0.00,0.00,140.56,274.76,9.50,1,1,1,138.30,142.99,274.27,275.22,7.50,11.50,4.00,9.27,TARP,DOE-2,3.47,3.28,3.28,0.00,14,0,0,Yes
 Zone Information, 2ND STOREY:167 ROOM,0.0,0.00,0.00,0.00,148.10,289.81,9.60,1,1,1,144.63,150.96,287.73,291.61,7.50,11.50,4.00,53.95,TARP,DOE-2,16.71,34.47,34.47,0.00,15,0,0,Yes
 Zone Information, 2ND STOREY:211 ROOM,0.0,0.00,0.00,0.00,143.31,279.93,9.50,1,1,1,142.28,144.35,278.90,280.96,7.50,11.50,4.00,13.00,TARP,DOE-2,4.04,0.00,0.00,0.00,9,0,0,Yes
 Zone Information, 2ND STOREY:253 ROOM,0.0,0.00,0.00,0.00,194.93,274.87,9.60,1,1,1,192.24,198.38,273.15,276.37,7.50,11.50,4.00,54.21,TARP,DOE-2,16.79,34.82,34.82,0.00,13,0,0,Yes
 Zone Information, 1ST STOREY:40 ROOM,0.0,0.00,0.00,0.00,141.59,273.42,5.50,1,1,1,138.33,144.45,271.62,275.24,3.50,7.50,3.83,56.54,TARP,DOE-2,17.49,34.81,34.81,0.00,14,0,0,Yes
 Zone Information, 3RD STOREY:288 ROOM,0.0,0.00,0.00,0.00,140.92,273.26,13.65,1,1,1,136.94,144.48,271.58,274.96,11.50,15.80,4.33,71.10,TARP,DOE-2,20.41,43.11,43.11,0.00,13,0,0,Yes
 Zone Information, 2ND STOREY:195 ROOM,0.0,0.00,0.00,0.00,197.62,295.72,9.50,1,1,1,194.64,201.03,293.80,297.16,7.50,11.50,4.00,53.81,TARP,DOE-2,16.78,34.82,34.82,0.00,10,0,0,Yes
 Zone Information, LOWER 1ST STOREY:130 ROOM,0.0,0.00,0.00,0.00,158.52,261.95,2.75,1,1,1,156.69,160.44,260.70,263.35,0.00,5.50,5.50,35.92,TARP,DOE-2,8.23,26.52,26.52,0.00,11,0,0,Yes
 Zone Information, 1ST STOREY:98 ROOM,0.0,0.00,0.00,0.00,187.96,299.45,5.50,1,1,1,186.21,189.71,297.70,301.20,3.50,7.50,4.00,33.10,TARP,DOE-2,9.90,0.00,0.00,0.00,6,0,0,Yes
 Zone Information, 1ST STOREY:100 ROOM,0.0,0.00,0.00,0.00,180.11,294.39,5.60,1,1,1,173.59,185.48,291.37,297.49,3.50,7.50,4.00,188.58,TARP,DOE-2,54.51,45.57,45.57,0.00,8,0,0,Yes
 Zone Information, 2ND STORY_A:366 ROOM,0.0,0.00,0.00,0.00,136.67,254.45,7.50,1,1,1,133.24,139.48,252.85,256.59,5.50,9.50,4.00,65.77,TARP,DOE-2,19.40,12.99,12.99,0.00,13,0,0,Yes
 Zone Information, 2ND STOREY:224 ROOM,0.0,0.00,0.00,0.00,140.54,279.89,9.50,1,1,1,138.12,144.29,275.09,283.42,7.50,11.50,4.00,87.48,TARP,DOE-2,25.95,35.50,35.50,0.00,19,0,0,Yes
 Zone Information, 3RD STOREY:426 ROOM,0.0,0.00,0.00,0.00,196.38,301.21,13.65,1,1,1,193.63,199.03,296.95,305.75,11.50,15.80,6.60,118.97,TARP,DOE-2,32.69,11.81,11.81,0.00,18,0,0,Yes
 Zone Information, LOWER 1ST STOREY:356 ROOM,0.0,0.00,0.00,0.00,156.50,254.05,2.75,1,1,1,151.17,161.24,251.01,257.12,0.00,5.50,5.40E-002,246.38,TARP,DOE-2,50.86,81.92,57.94,23.99,12,1,0,Yes
 Zone Information, 2ND STOREY:225 ROOM,0.0,0.00,0.00,0.00,138.68,282.46,9.50,1,1,1,138.07,139.30,281.58,283.35,7.50,11.50,4.00,6.30,TARP,DOE-2,2.05,11.67,11.67,0.00,6,0,0,Yes
 Zone Information, LOWER 1ST STOREY:139 ROOM,0.0,0.00,0.00,0.00,136.44,251.20,2.75,1,1,1,133.44,139.76,249.28,252.80,0.00,5.50,5.24,86.82,TARP,DOE-2,17.19,52.13,52.13,0.00,12,0,0,Yes
 Zone Information, 1ST STOREY:102 ROOM,0.0,0.00,0.00,0.00,144.38,296.60,5.50,1,1,1,143.80,144.96,296.00,297.22,3.50,7.50,4.00,3.33,TARP,DOE-2,1.14,4.42,4.42,0.00,8,0,0,Yes
 Zone Information, 1ST STOREY:33 ROOM,0.0,0.00,0.00,0.00,142.69,282.94,5.50,1,1,1,141.14,144.25,282.40,283.49,3.50,7.50,4.00,9.62,TARP,DOE-2,3.09,12.32,12.32,0.00,6,0,0,Yes
 Zone Information, 3RD STORY_A:379 ROOM,0.0,0.00,0.00,0.00,135.72,252.59,11.65,1,1,1,133.43,138.16,251.92,253.25,9.50,13.80,4.30,11.83,TARP,DOE-2,3.97,3.96,3.96,0.00,12,0,0,Yes
 Zone Information, 2ND STORY_A:368 ROOM,0.0,0.00,0.00,0.00,140.38,259.33,7.50,1,1,1,138.83,142.08,256.61,261.85,5.50,9.50,4.00,40.79,TARP,DOE-2,12.43,12.28,12.28,0.00,13,0,0,Yes
 Zone Information, 2ND STORY_A:369 ROOM,0.0,0.00,0.00,0.00,143.73,259.68,7.50,1,1,1,141.89,145.38,256.96,262.11,5.50,9.50,4.00,40.78,TARP,DOE-2,12.43,12.28,12.28,0.00,12,0,0,Yes
 Zone Information, 3RD STOREY:294 ROOM,0.0,0.00,0.00,0.00,191.48,283.09,13.65,1,1,1,190.84,192.12,281.33,284.85,11.50,15.80,5.07,12.63,TARP,DOE-2,4.10,5.06,5.06,0.00,8,0,0,Yes
 Zone Information, 3RD STORY_A:412 ROOM,0.0,0.00,0.00,0.00,155.94,264.36,11.65,1,1,1,154.41,157.28,262.95,265.76,9.50,13.80,4.32,24.20,TARP,DOE-2,6.77,22.22,14.62,7.60,18,4,0,Yes
 Zone Information, LOWER 1ST STOREY:235 ROOM,0.0,0.00,0.00,0.00,137.09,252.63,2.75,1,1,1,134.66,139.53,252.09,253.22,0.00,5.50,5.50,13.81,TARP,DOE-2,3.54,0.00,0.00,0.00,11,0,0,Yes
 Zone Information, 3RD STOREY:285 ROOM,0.0,0.00,0.00,0.00,140.93,275.95,13.65,1,1,1,136.86,144.39,274.92,277.18,11.50,15.80,11.63,51.98,TARP,DOE-2,14.57,8.26,8.26,0.00,15,0,0,Yes
 Zone Information, 2ND STOREY:173 ROOM,0.0,0.00,0.00,0.00,157.13,294.43,9.52,1,1,1,150.41,164.03,288.56,300.66,7.50,11.50,4.00,313.21,TARP,DOE-2,90.02,100.49,43.56,56.93,81,12,0,Yes
 Zone Information, 3RD STOREY:302 ROOM,0.0,0.00,0.00,0.00,182.24,278.92,13.64,1,1,1,174.78,192.35,272.79,284.82,11.50,15.80,4.31,721.88,TARP,DOE-2,192.57,177.20,69.27,107.93,74,11,0,Yes
 Zone Information, 2ND STOREY:203 ROOM,0.0,0.00,0.00,0.00,188.64,303.05,9.50,1,1,1,184.08,192.87,300.93,305.28,7.50,11.50,4.00,96.00,TARP,DOE-2,28.36,33.81,14.78,19.03,11,1,0,Yes
 Zone Information, 3RD STOREY:301 ROOM,0.0,0.00,0.00,0.00,195.59,277.52,13.65,1,1,1,192.09,199.71,276.32,278.75,11.50,15.80,6.31,53.35,TARP,DOE-2,14.94,8.26,8.26,0.00,16,0,0,Yes
 Zone Information, 2ND STORY_A:375 ROOM,0.0,0.00,0.00,0.00,161.66,259.94,7.64,1,1,1,160.28,163.15,258.47,261.32,5.50,9.50,4.00,22.99,TARP,DOE-2,6.97,10.58,10.58,0.00,15,0,0,Yes
 Zone Information, 1ST STOREY:421 ROOM,0.0,0.00,0.00,0.00,154.98,286.58,5.50,1,1,1,152.68,156.74,283.77,289.22,3.50,7.50,4.00,55.01,TARP,DOE-2,16.59,42.36,26.93,15.43,35,6,0,Yes
 Zone Information, LOWER 1ST STOREY:128 ROOM,0.0,0.00,0.00,0.00,148.43,253.12,2.75,1,1,1,145.75,151.64,250.48,256.02,0.00,5.50,0.17,104.25,TARP,DOE-2,21.65,29.91,29.91,0.00,10,0,0,Yes
 Zone Information, 2ND STORY_A:364 ROOM,0.0,0.00,0.00,0.00,136.93,251.35,7.60,1,1,1,133.48,139.75,249.38,253.08,5.50,9.50,4.00,55.69,TARP,DOE-2,17.18,34.90,34.90,0.00,17,0,0,Yes
 Zone Information, 1ST STOREY:237 ROOM,0.0,0.00,0.00,0.00,140.57,274.75,5.50,1,1,1,138.30,143.01,274.27,275.20,3.50,7.50,4.00,8.94,TARP,DOE-2,3.39,3.20,3.20,0.00,13,0,0,Yes
! <Zone Internal Gains/Equipment Information - Nominal>,Zone Name, Floor Area {m2},# Occupants,Area per Occupant {m2/person},Occupant per Area {person/m2},Interior Lighting {W/m2},Electric Load {W/m2},Gas Load {W/m2},Other Load {W/m2},Hot Water Eq {W/m2},Steam Equipment {W/m2},Sum Loads per Area {W/m2},Outdoor Controlled Baseboard Heat
 Zone Internal Gains, 2ND STORY_A:384 ROOM,8.00,0.0,N/A,0.000,3.566,5.390,0.000,0.000,0.000,0.000,8.956,No
 Zone Internal Gains, 2ND STORY_A:359 ROOM,61.93,0.0,N/A,0.000,3.566,5.390,0.000,0.000,0.000,0.000,8.956,No
 Zone Internal Gains, 3RD STOREY:415 ROOM,204.45,0.0,N/A,0.000,3.566,5.390,0.000,0.000,0.000,0.000,8.956,No
 Zone Internal Gains, 3RD STORY_A:419 ROOM,10.29,0.0,N/A,0.000,3.566,5.390,0.000,0.000,0.000,0.000,8.956,No
 Zone Internal Gains, 2ND STOREY:197 ROOM,149.97,0.0,N/A,0.000,3.566,5.390,0.000,0.000,0.000,0.000,8.956,No
 Zone Internal Gains, 2ND STOREY:206 ROOM,2.68,0.0,N/A,0.000,3.566,5.390,0.000,0.000,0.000,0.000,8.956,No
 Zone Internal Gains, LOWER 1ST STOREY:354 ROOM,29.43,0.0,N/A,0.000,3.566,5.390,0.000,0.000,0.000,0.000,8.956,No
 Zone Internal Gains, LOWER 1ST STOREY:127 ROOM,34.60,0.0,N/A,0.000,3.566,5.390,0.000,0.000,0.000,0.000,8.956,No
 Zone Internal Gains, 2ND STORY_A:371 ROOM,166.29,0.0,N/A,0.000,3.566,5.390,0.000,0.000,0.000,0.000,8.956,No
 Zone Internal Gains, 1ST STOREY:126 ROOM,1.48,0.0,N/A,0.000,3.566,5.390,0.000,0.000,0.000,0.000,8.956,No
 Zone Internal Gains, 3RD STOREY:318 ROOM,9.66,0.0,N/A,0.000,3.566,5.390,0.000,0.000,0.000,0.000,8.956,No
 Zone Internal Gains, 1ST STOREY:420 ROOM,10.74,0.0,N/A,0.000,3.566,5.390,0.000,0.000,0.000,0.000,8.956,No
 Zone Internal Gains, 2ND STOREY:194 ROOM,12.21,0.0,N/A,0.000,3.566,5.390,0.000,0.000,0.000,0.000,8.956,No
 Zone Internal Gains, 2ND STORY_A:367 ROOM,30.50,0.0,N/A,0.000,3.566,5.390,0.000,0.000,0.000,0.000,8.956,No
 Zone Internal Gains, 3RD STOREY:291 ROOM,4.25,0.0,N/A,0.000,3.566,5.390,0.000,0.000,0.000,0.000,8.956,No
 Zone Internal Gains, 3RD STOREY:320 ROOM,16.70,0.0,N/A,0.000,3.566,5.390,0.000,0.000,0.000,0.000,8.956,No
 Zone Internal Gains, LOWER 1ST STOREY:143 ROOM,25.31,0.0,N/A,0.000,3.566,5.390,0.000,0.000,0.000,0.000,8.956,No
 Zone Internal Gains, 2ND STOREY:392 ROOM,211.33,0.0,N/A,0.000,3.566,5.390,0.000,0.000,0.000,0.000,8.956,No
 Zone Internal Gains, 2ND STOREY:249 ROOM,4.04,0.0,N/A,0.000,3.566,5.390,0.000,0.000,0.000,0.000,8.956,No
 Zone Internal Gains, 3RD STOREY:308 ROOM,1.56,0.0,N/A,0.000,3.566,5.390,0.000,0.000,0.000,0.000,8.956,No
 Zone Internal Gains, 1ST STOREY:236 ROOM,3.50,0.0,N/A,0.000,3.566,5.390,0.000,0.000,0.000,0.000,8.956,No
 Zone Internal Gains, 1ST STOREY:123 ROOM,16.39,0.0,N/A,0.000,3.566,5.390,0.000,0.000,0.000,0.000,8.956,No
 Zone Internal Gains, 1ST STOREY:44 ROOM,287.27,0.0,N/A,0.000,3.566,5.390,0.000,0.000,0.000,0.000,8.956,No
 Zone Internal Gains, 3RD STOREY:310 ROOM,17.16,0.0,N/A,0.000,3.566,5.390,0.000,0.000,0.000,0.000,8.956,No
 Zone Internal Gains, 1ST STOREY:99 ROOM,22.77,0.0,N/A,0.000,3.566,5.390,0.000,0.000,0.000,0.000,8.956,No
 Zone Internal Gains, 3RD STORY_A:380 ROOM,311.52,0.0,N/A,0.000,3.566,5.390,0.000,0.000,0.000,0.000,8.956,No
 Zone Internal Gains, LOWER 1ST STOREY:129 ROOM,7.49,0.0,N/A,0.000,3.566,5.390,0.000,0.000,0.000,0.000,8.956,No
 Zone Internal Gains, LOWER 1ST STOREY:134 ROOM,17.57,0.0,N/A,0.000,3.566,5.390,0.000,0.000,0.000,0.000,8.956,No
 Zone Internal Gains, 2ND STOREY:223 ROOM,17.11,0.0,N/A,0.000,3.566,5.390,0.000,0.000,0.000,0.000,8.956,No
 Zone Internal Gains, 3RD STOREY:309 ROOM,20.49,0.0,N/A,0.000,3.566,5.390,0.000,0.000,0.000,0.000,8.956,No
 Zone Internal Gains, 2ND STOREY:169 ROOM,12.06,0.0,N/A,0.000,3.566,5.390,0.000,0.000,0.000,0.000,8.956,No
 Zone Internal Gains, 3RD STOREY:305 ROOM,3.47,0.0,N/A,0.000,3.566,5.390,0.000,0.000,0.000,0.000,8.956,No
 Zone Internal Gains, 2ND STOREY:234 ROOM,283.63,0.0,N/A,0.000,3.566,5.390,0.000,0.000,0.000,0.000,8.956,No
 Zone Internal Gains, 2ND STOREY:240 ROOM,3.93,0.0,N/A,0.000,3.566,5.390,0.000,0.000,0.000,0.000,8.956,No
 Zone Internal Gains, 2ND STOREY:252 ROOM,3.80,0.0,N/A,0.000,3.566,5.390,0.000,0.000,0.000,0.000,8.956,No
 Zone Internal Gains, 1ST STOREY:103 ROOM,17.90,0.0,N/A,0.000,3.566,5.390,0.000,0.000,0.000,0.000,8.956,No
 Zone Internal Gains, LOWER 1ST STOREY:142 ROOM,58.90,0.0,N/A,0.000,3.566,5.390,0.000,0.000,0.000,0.000,8.956,No
 Zone Internal Gains, LOWER 1ST STOREY:135 ROOM,25.00,0.0,N/A,0.000,3.566,5.390,0.000,0.000,0.000,0.000,8.956,No
 Zone Internal Gains, 1ST STOREY:34 ROOM,31.63,0.0,N/A,0.000,3.566,5.390,0.000,0.000,0.000,0.000,8.956,No
 Zone Internal Gains, 3RD STOREY:410 ROOM,141.36,0.0,N/A,0.000,3.566,5.390,0.000,0.000,0.000,0.000,8.956,No
 Zone Internal Gains, 3RD STOREY:319 ROOM,3.97,0.0,N/A,0.000,3.566,5.390,0.000,0.000,0.000,0.000,8.956,No
 Zone Internal Gains, 3RD STOREY:347 ROOM,7.84,0.0,N/A,0.000,3.566,5.390,0.000,0.000,0.000,0.000,8.956,No
 Zone Internal Gains, 3RD STOREY:414 ROOM,16.46,0.0,N/A,0.000,3.566,5.390,0.000,0.000,0.000,0.000,8.956,No
 Zone Internal Gains, 2ND STOREY:417 ROOM,24.01,0.0,N/A,0.000,3.566,5.390,0.000,0.000,0.000,0.000,8.956,No
 Zone Internal Gains, 2ND STORY_A:370 ROOM,4.08,0.0,N/A,0.000,3.566,5.390,0.000,0.000,0.000,0.000,8.956,No
 Zone Internal Gains, 3RD STOREY:298 ROOM,47.10,0.0,N/A,0.000,3.566,5.390,0.000,0.000,0.000,0.000,8.956,No
 Zone Internal Gains, 2ND STORY_A:376 ROOM,2.66,0.0,N/A,0.000,3.566,5.390,0.000,0.000,0.000,0.000,8.956,No
 Zone Internal Gains, 3RD STORY_A:381 ROOM,3.51,0.0,N/A,0.000,3.566,5.390,0.000,0.000,0.000,0.000,8.956,No
 Zone Internal Gains, 2ND STORY_A:365 ROOM,3.47,0.0,N/A,0.000,3.566,5.390,0.000,0.000,0.000,0.000,8.956,No
 Zone Internal Gains, 2ND STOREY:408 ROOM,25.48,0.0,N/A,0.000,3.566,5.390,0.000,0.000,0.000,0.000,8.956,No
 Zone Internal Gains, 2ND STOREY:342 ROOM,16.60,0.0,N/A,0.000,3.566,5.390,0.000,0.000,0.000,0.000,8.956,No
 Zone Internal Gains, 2ND STOREY:168 ROOM,36.42,0.0,N/A,0.000,3.566,5.390,0.000,0.000,0.000,0.000,8.956,No
 Zone Internal Gains, 2ND STOREY:176 ROOM,3.86,0.0,N/A,0.000,3.566,5.390,0.000,0.000,0.000,0.000,8.956,No
 Zone Internal Gains, 2ND STOREY:209 ROOM,3.45,0.0,N/A,0.000,3.566,5.390,0.000,0.000,0.000,0.000,8.956,No
 Zone Internal Gains, 2ND STOREY:242 ROOM,3.83,0.0,N/A,0.000,3.566,5.390,0.000,0.000,0.000,0.000,8.956,No
 Zone Internal Gains, 3RD STOREY:300 ROOM,20.36,0.0,N/A,0.000,3.566,5.390,0.000,0.000,0.000,0.000,8.956,No
 Zone Internal Gains, 1ST STOREY:122 ROOM,224.05,0.0,N/A,0.000,3.566,5.390,0.000,0.000,0.000,0.000,8.956,No
 Zone Internal Gains, 3RD STORY_A:382 ROOM,1.48,0.0,N/A,0.000,3.566,5.390,0.000,0.000,0.000,0.000,8.956,No
 Zone Internal Gains, 2ND STORY_A:385 ROOM,23.02,0.0,N/A,0.000,3.566,5.390,0.000,0.000,0.000,0.000,8.956,No
 Zone Internal Gains, 1ST STOREY:113 ROOM,7.59,0.0,N/A,0.000,3.566,5.390,0.000,0.000,0.000,0.000,8.956,No
 Zone Internal Gains, 1ST STOREY:125 ROOM,9.46,0.0,N/A,0.000,3.566,5.390,0.000,0.000,0.000,0.000,8.956,No
 Zone Internal Gains, 3RD STOREY:411 ROOM,268.40,0.0,N/A,0.000,3.566,5.390,0.000,0.000,0.000,0.000,8.956,No
 Zone Internal Gains, 3RD STOREY:293 ROOM,5.11,0.0,N/A,0.000,3.566,5.390,0.000,0.000,0.000,0.000,8.956,No
 Zone Internal Gains, 3RD STORY_A:387 ROOM,8.11,0.0,N/A,0.000,3.566,5.390,0.000,0.000,0.000,0.000,8.956,No
 Zone Internal Gains, 3RD STOREY:284 ROOM,5.11,0.0,N/A,0.000,3.566,5.390,0.000,0.000,0.000,0.000,8.956,No
 Zone Internal Gains, 3RD STOREY:316 ROOM,3.91,0.0,N/A,0.000,3.566,5.390,0.000,0.000,0.000,0.000,8.956,No
 Zone Internal Gains, 2ND STOREY:181 ROOM,1.11,0.0,N/A,0.000,3.566,5.390,0.000,0.000,0.000,0.000,8.956,No
 Zone Internal Gains, LOWER 1ST STOREY:144 ROOM,23.01,0.0,N/A,0.000,3.566,5.390,0.000,0.000,0.000,0.000,8.956,No
 Zone Internal Gains, 1ST STOREY:348 ROOM,133.49,0.0,N/A,0.000,3.566,5.390,0.000,0.000,0.000,0.000,8.956,No
 Zone Internal Gains, 3RD STORY_A:378 ROOM,16.41,0.0,N/A,0.000,3.566,5.390,0.000,0.000,0.000,0.000,8.956,No
 Zone Internal Gains, 2ND STOREY:245 ROOM,37.07,0.0,N/A,0.000,3.566,5.390,0.000,0.000,0.000,0.000,8.956,No
 Zone Internal Gains, 2ND STOREY:251 ROOM,30.85,0.0,N/A,0.000,3.566,5.390,0.000,0.000,0.000,0.000,8.956,No
 Zone Internal Gains, 3RD STOREY:283 ROOM,46.51,0.0,N/A,0.000,3.566,5.390,0.000,0.000,0.000,0.000,8.956,No
 Zone Internal Gains, 3RD STOREY:405 ROOM,10.66,0.0,N/A,0.000,3.566,5.390,0.000,0.000,0.000,0.000,8.956,No
 Zone Internal Gains, 3RD STORY_A:377 ROOM,35.22,0.0,N/A,0.000,3.566,5.390,0.000,0.000,0.000,0.000,8.956,No
 Zone Internal Gains, 2ND STOREY:241 ROOM,3.47,0.0,N/A,0.000,3.566,5.390,0.000,0.000,0.000,0.000,8.956,No
 Zone Internal Gains, 2ND STOREY:167 ROOM,16.71,0.0,N/A,0.000,3.566,5.390,0.000,0.000,0.000,0.000,8.956,No
 Zone Internal Gains, 2ND STOREY:211 ROOM,4.04,0.0,N/A,0.000,3.566,5.390,0.000,0.000,0.000,0.000,8.956,No
 Zone Internal Gains, 2ND STOREY:253 ROOM,16.79,0.0,N/A,0.000,3.566,5.390,0.000,0.000,0.000,0.000,8.956,No
 Zone Internal Gains, 1ST STOREY:40 ROOM,17.49,0.0,N/A,0.000,3.566,5.390,0.000,0.000,0.000,0.000,8.956,No
 Zone Internal Gains, 3RD STOREY:288 ROOM,20.41,0.0,N/A,0.000,3.566,5.390,0.000,0.000,0.000,0.000,8.956,No
 Zone Internal Gains, 2ND STOREY:195 ROOM,16.78,0.0,N/A,0.000,3.566,5.390,0.000,0.000,0.000,0.000,8.956,No
 Zone Internal Gains, LOWER 1ST STOREY:130 ROOM,8.23,0.0,N/A,0.000,3.566,5.390,0.000,0.000,0.000,0.000,8.956,No
 Zone Internal Gains, 1ST STOREY:98 ROOM,9.90,0.0,N/A,0.000,3.566,5.390,0.000,0.000,0.000,0.000,8.956,No
 Zone Internal Gains, 1ST STOREY:100 ROOM,54.51,0.0,N/A,0.000,3.566,5.390,0.000,0.000,0.000,0.000,8.956,No
 Zone Internal Gains, 2ND STORY_A:366 ROOM,19.40,0.0,N/A,0.000,3.566,5.390,0.000,0.000,0.000,0.000,8.956,No
 Zone Internal Gains, 2ND STOREY:224 ROOM,25.95,0.0,N/A,0.000,3.566,5.390,0.000,0.000,0.000,0.000,8.956,No
 Zone Internal Gains, 3RD STOREY:426 ROOM,32.69,0.0,N/A,0.000,3.566,5.390,0.000,0.000,0.000,0.000,8.956,No
 Zone Internal Gains, LOWER 1ST STOREY:356 ROOM,50.86,0.0,N/A,0.000,3.566,5.390,0.000,0.000,0.000,0.000,8.956,No
 Zone Internal Gains, 2ND STOREY:225 ROOM,2.05,0.0,N/A,0.000,3.566,5.390,0.000,0.000,0.000,0.000,8.956,No
 Zone Internal Gains, LOWER 1ST STOREY:139 ROOM,17.19,0.0,N/A,0.000,3.566,5.390,0.000,0.000,0.000,0.000,8.956,No
 Zone Internal Gains, 1ST STOREY:102 ROOM,1.14,0.0,N/A,0.000,3.566,5.390,0.000,0.000,0.000,0.000,8.956,No
 Zone Internal Gains, 1ST STOREY:33 ROOM,3.09,0.0,N/A,0.000,3.566,5.390,0.000,0.000,0.000,0.000,8.956,No
 Zone Internal Gains, 3RD STORY_A:379 ROOM,3.97,0.0,N/A,0.000,3.566,5.390,0.000,0.000,0.000,0.000,8.956,No
 Zone Internal Gains, 2ND STORY_A:368 ROOM,12.43,0.0,N/A,0.000,3.566,5.390,0.000,0.000,0.000,0.000,8.956,No
 Zone Internal Gains, 2ND STORY_A:369 ROOM,12.43,0.0,N/A,0.000,3.566,5.390,0.000,0.000,0.000,0.000,8.956,No
 Zone Internal Gains, 3RD STOREY:294 ROOM,4.10,0.0,N/A,0.000,3.566,5.390,0.000,0.000,0.000,0.000,8.956,No
 Zone Internal Gains, 3RD STORY_A:412 ROOM,6.77,0.0,N/A,0.000,3.566,5.390,0.000,0.000,0.000,0.000,8.956,No
 Zone Internal Gains, LOWER 1ST STOREY:235 ROOM,3.54,0.0,N/A,0.000,3.566,5.390,0.000,0.000,0.000,0.000,8.956,No
 Zone Internal Gains, 3RD STOREY:285 ROOM,14.57,0.0,N/A,0.000,3.566,5.390,0.000,0.000,0.000,0.000,8.956,No
 Zone Internal Gains, 2ND STOREY:173 ROOM,90.02,0.0,N/A,0.000,3.566,5.390,0.000,0.000,0.000,0.000,8.956,No
 Zone Internal Gains, 3RD STOREY:302 ROOM,192.57,0.0,N/A,0.000,3.566,5.390,0.000,0.000,0.000,0.000,8.956,No
 Zone Internal Gains, 2ND STOREY:203 ROOM,28.36,0.0,N/A,0.000,3.566,5.390,0.000,0.000,0.000,0.000,8.956,No
 Zone Internal Gains, 3RD STOREY:301 ROOM,14.94,0.0,N/A,0.000,3.566,5.390,0.000,0.000,0.000,0.000,8.956,No
 Zone Internal Gains, 2ND STORY_A:375 ROOM,6.97,0.0,N/A,0.000,3.566,5.390,0.000,0.000,0.000,0.000,8.956,No
 Zone Internal Gains, 1ST STOREY:421 ROOM,16.59,0.0,N/A,0.000,3.566,5.390,0.000,0.000,0.000,0.000,8.956,No
 Zone Internal Gains, LOWER 1ST STOREY:128 ROOM,21.65,0.0,N/A,0.000,3.566,5.390,0.000,0.000,0.000,0.000,8.956,No
 Zone Internal Gains, 2ND STORY_A:364 ROOM,17.18,0.0,N/A,0.000,3.566,5.390,0.000,0.000,0.000,0.000,8.956,No
 Zone Internal Gains, 1ST STOREY:237 ROOM,3.39,0.0,N/A,0.000,3.566,5.390,0.000,0.000,0.000,0.000,8.956,No
! <People Internal Gains - Nominal>,Name,Schedule Name,Zone Name,Zone Floor Area {m2},# Zone Occupants,Number of People {},People/Floor Area {person/m2},Floor Area per person {m2/person},Fraction Radiant,Fraction Convected,Sensible Fraction Calculation,Activity level,ASHRAE 55 Warnings,Carbon Dioxide Generation Rate,Nominal Minimum Number of People,Nominal Maximum Number of People
 People Internal Gains, 2ND STORY_A:384 ROOM PEOPLE,BUILDING_OCC_SCH,2ND STORY_A:384 ROOM,8.00,0.0,0.0,0.000,N/A,0.300,0.700,AutoCalculate,ACTIVITY SCHEDULE,No,3.8200E-008,0,0
 People Internal Gains, 2ND STORY_A:359 ROOM PEOPLE,BUILDING_OCC_SCH,2ND STORY_A:359 ROOM,61.93,0.0,0.0,0.000,N/A,0.300,0.700,AutoCalculate,ACTIVITY SCHEDULE,No,3.8200E-008,0,0
 People Internal Gains, 3RD STOREY:415 ROOM PEOPLE,BUILDING_OCC_SCH,3RD STOREY:415 ROOM,204.45,0.0,0.0,0.000,N/A,0.300,0.700,AutoCalculate,ACTIVITY SCHEDULE,No,3.8200E-008,0,0
 People Internal Gains, 3RD STORY_A:419 ROOM PEOPLE,BUILDING_OCC_SCH,3RD STORY_A:419 ROOM,10.29,0.0,0.0,0.000,N/A,0.300,0.700,AutoCalculate,ACTIVITY SCHEDULE,No,3.8200E-008,0,0
 People Internal Gains, 2ND STOREY:197 ROOM PEOPLE,BUILDING_OCC_SCH,2ND STOREY:197 ROOM,149.97,0.0,0.0,0.000,N/A,0.300,0.700,AutoCalculate,ACTIVITY SCHEDULE,No,3.8200E-008,0,0
 People Internal Gains, 2ND STOREY:206 ROOM PEOPLE,BUILDING_OCC_SCH,2ND STOREY:206 ROOM,2.68,0.0,0.0,0.000,N/A,0.300,0.700,AutoCalculate,ACTIVITY SCHEDULE,No,3.8200E-008,0,0
 People Internal Gains, LOWER 1ST STOREY:354 ROOM PEOPLE,BUILDING_OCC_SCH,LOWER 1ST STOREY:354 ROOM,29.43,0.0,0.0,0.000,N/A,0.300,0.700,AutoCalculate,ACTIVITY SCHEDULE,No,3.8200E-008,0,0
 People Internal Gains, LOWER 1ST STOREY:127 ROOM PEOPLE,BUILDING_OCC_SCH,LOWER 1ST STOREY:127 ROOM,34.60,0.0,0.0,0.000,N/A,0.300,0.700,AutoCalculate,ACTIVITY SCHEDULE,No,3.8200E-008,0,0
 People Internal Gains, 2ND STORY_A:371 ROOM PEOPLE,BUILDING_OCC_SCH,2ND STORY_A:371 ROOM,166.29,0.0,0.0,0.000,N/A,0.300,0.700,AutoCalculate,ACTIVITY SCHEDULE,No,3.8200E-008,0,0
 People Internal Gains, 1ST STOREY:126 ROOM PEOPLE,BUILDING_OCC_SCH,1ST STOREY:126 ROOM,1.48,0.0,0.0,0.000,N/A,0.300,0.700,AutoCalculate,ACTIVITY SCHEDULE,No,3.8200E-008,0,0
 People Internal Gains, 3RD STOREY:318 ROOM PEOPLE,BUILDING_OCC_SCH,3RD STOREY:318 ROOM,9.66,0.0,0.0,0.000,N/A,0.300,0.700,AutoCalculate,ACTIVITY SCHEDULE,No,3.8200E-008,0,0
 People Internal Gains, 1ST STOREY:420 ROOM PEOPLE,BUILDING_OCC_SCH,1ST STOREY:420 ROOM,10.74,0.0,0.0,0.000,N/A,0.300,0.700,AutoCalculate,ACTIVITY SCHEDULE,No,3.8200E-008,0,0
 People Internal Gains, 2ND STOREY:194 ROOM PEOPLE,BUILDING_OCC_SCH,2ND STOREY:194 ROOM,12.21,0.0,0.0,0.000,N/A,0.300,0.700,AutoCalculate,ACTIVITY SCHEDULE,No,3.8200E-008,0,0
 People Internal Gains, 2ND STORY_A:367 ROOM PEOPLE,BUILDING_OCC_SCH,2ND STORY_A:367 ROOM,30.50,0.0,0.0,0.000,N/A,0.300,0.700,AutoCalculate,ACTIVITY SCHEDULE,No,3.8200E-008,0,0
 People Internal Gains, 3RD STOREY:291 ROOM PEOPLE,BUILDING_OCC_SCH,3RD STOREY:291 ROOM,4.25,0.0,0.0,0.000,N/A,0.300,0.700,AutoCalculate,ACTIVITY SCHEDULE,No,3.8200E-008,0,0
 People Internal Gains, 3RD STOREY:320 ROOM PEOPLE,BUILDING_OCC_SCH,3RD STOREY:320 ROOM,16.70,0.0,0.0,0.000,N/A,0.300,0.700,AutoCalculate,ACTIVITY SCHEDULE,No,3.8200E-008,0,0
 People Internal Gains, LOWER 1ST STOREY:143 ROOM PEOPLE,BUILDING_OCC_SCH,LOWER 1ST STOREY:143 ROOM,25.31,0.0,0.0,0.000,N/A,0.300,0.700,AutoCalculate,ACTIVITY SCHEDULE,No,3.8200E-008,0,0
 People Internal Gains, 2ND STOREY:392 ROOM PEOPLE,BUILDING_OCC_SCH,2ND STOREY:392 ROOM,211.33,0.0,0.0,0.000,N/A,0.300,0.700,AutoCalculate,ACTIVITY SCHEDULE,No,3.8200E-008,0,0
 People Internal Gains, 2ND STOREY:249 ROOM PEOPLE,BUILDING_OCC_SCH,2ND STOREY:249 ROOM,4.04,0.0,0.0,0.000,N/A,0.300,0.700,AutoCalculate,ACTIVITY SCHEDULE,No,3.8200E-008,0,0
 People Internal Gains, 3RD STOREY:308 ROOM PEOPLE,BUILDING_OCC_SCH,3RD STOREY:308 ROOM,1.56,0.0,0.0,0.000,N/A,0.300,0.700,AutoCalculate,ACTIVITY SCHEDULE,No,3.8200E-008,0,0
 People Internal Gains, 1ST STOREY:236 ROOM PEOPLE,BUILDING_OCC_SCH,1ST STOREY:236 ROOM,3.50,0.0,0.0,0.000,N/A,0.300,0.700,AutoCalculate,ACTIVITY SCHEDULE,No,3.8200E-008,0,0
 People Internal Gains, 1ST STOREY:123 ROOM PEOPLE,BUILDING_OCC_SCH,1ST STOREY:123 ROOM,16.39,0.0,0.0,0.000,N/A,0.300,0.700,AutoCalculate,ACTIVITY SCHEDULE,No,3.8200E-008,0,0
 People Internal Gains, 1ST STOREY:44 ROOM PEOPLE,BUILDING_OCC_SCH,1ST STOREY:44 ROOM,287.27,0.0,0.0,0.000,N/A,0.300,0.700,AutoCalculate,ACTIVITY SCHEDULE,No,3.8200E-008,0,0
 People Internal Gains, 3RD STOREY:310 ROOM PEOPLE,BUILDING_OCC_SCH,3RD STOREY:310 ROOM,17.16,0.0,0.0,0.000,N/A,0.300,0.700,AutoCalculate,ACTIVITY SCHEDULE,No,3.8200E-008,0,0
 People Internal Gains, 1ST STOREY:99 ROOM PEOPLE,BUILDING_OCC_SCH,1ST STOREY:99 ROOM,22.77,0.0,0.0,0.000,N/A,0.300,0.700,AutoCalculate,ACTIVITY SCHEDULE,No,3.8200E-008,0,0
 People Internal Gains, 3RD STORY_A:380 ROOM PEOPLE,BUILDING_OCC_SCH,3RD STORY_A:380 ROOM,311.52,0.0,0.0,0.000,N/A,0.300,0.700,AutoCalculate,ACTIVITY SCHEDULE,No,3.8200E-008,0,0
 People Internal Gains, LOWER 1ST STOREY:129 ROOM PEOPLE,BUILDING_OCC_SCH,LOWER 1ST STOREY:129 ROOM,7.49,0.0,0.0,0.000,N/A,0.300,0.700,AutoCalculate,ACTIVITY SCHEDULE,No,3.8200E-008,0,0
 People Internal Gains, LOWER 1ST STOREY:134 ROOM PEOPLE,BUILDING_OCC_SCH,LOWER 1ST STOREY:134 ROOM,17.57,0.0,0.0,0.000,N/A,0.300,0.700,AutoCalculate,ACTIVITY SCHEDULE,No,3.8200E-008,0,0
 People Internal Gains, 2ND STOREY:223 ROOM PEOPLE,BUILDING_OCC_SCH,2ND STOREY:223 ROOM,17.11,0.0,0.0,0.000,N/A,0.300,0.700,AutoCalculate,ACTIVITY SCHEDULE,No,3.8200E-008,0,0
 People Internal Gains, 3RD STOREY:309 ROOM PEOPLE,BUILDING_OCC_SCH,3RD STOREY:309 ROOM,20.49,0.0,0.0,0.000,N/A,0.300,0.700,AutoCalculate,ACTIVITY SCHEDULE,No,3.8200E-008,0,0
 People Internal Gains, 2ND STOREY:169 ROOM PEOPLE,BUILDING_OCC_SCH,2ND STOREY:169 ROOM,12.06,0.0,0.0,0.000,N/A,0.300,0.700,AutoCalculate,ACTIVITY SCHEDULE,No,3.8200E-008,0,0
 People Internal Gains, 3RD STOREY:305 ROOM PEOPLE,BUILDING_OCC_SCH,3RD STOREY:305 ROOM,3.47,0.0,0.0,0.000,N/A,0.300,0.700,AutoCalculate,ACTIVITY SCHEDULE,No,3.8200E-008,0,0
 People Internal Gains, 2ND STOREY:234 ROOM PEOPLE,BUILDING_OCC_SCH,2ND STOREY:234 ROOM,283.63,0.0,0.0,0.000,N/A,0.300,0.700,AutoCalculate,ACTIVITY SCHEDULE,No,3.8200E-008,0,0
 People Internal Gains, 2ND STOREY:240 ROOM PEOPLE,BUILDING_OCC_SCH,2ND STOREY:240 ROOM,3.93,0.0,0.0,0.000,N/A,0.300,0.700,AutoCalculate,ACTIVITY SCHEDULE,No,3.8200E-008,0,0
 People Internal Gains, 2ND STOREY:252 ROOM PEOPLE,BUILDING_OCC_SCH,2ND STOREY:252 ROOM,3.80,0.0,0.0,0.000,N/A,0.300,0.700,AutoCalculate,ACTIVITY SCHEDULE,No,3.8200E-008,0,0
 People Internal Gains, 1ST STOREY:103 ROOM PEOPLE,BUILDING_OCC_SCH,1ST STOREY:103 ROOM,17.90,0.0,0.0,0.000,N/A,0.300,0.700,AutoCalculate,ACTIVITY SCHEDULE,No,3.8200E-008,0,0
 People Internal Gains, LOWER 1ST STOREY:142 ROOM PEOPLE,BUILDING_OCC_SCH,LOWER 1ST STOREY:142 ROOM,58.90,0.0,0.0,0.000,N/A,0.300,0.700,AutoCalculate,ACTIVITY SCHEDULE,No,3.8200E-008,0,0
 People Internal Gains, LOWER 1ST STOREY:135 ROOM PEOPLE,BUILDING_OCC_SCH,LOWER 1ST STOREY:135 ROOM,25.00,0.0,0.0,0.000,N/A,0.300,0.700,AutoCalculate,ACTIVITY SCHEDULE,No,3.8200E-008,0,0
 People Internal Gains, 1ST STOREY:34 ROOM PEOPLE,BUILDING_OCC_SCH,1ST STOREY:34 ROOM,31.63,0.0,0.0,0.000,N/A,0.300,0.700,AutoCalculate,ACTIVITY SCHEDULE,No,3.8200E-008,0,0
 People Internal Gains, 3RD STOREY:410 ROOM PEOPLE,BUILDING_OCC_SCH,3RD STOREY:410 ROOM,141.36,0.0,0.0,0.000,N/A,0.300,0.700,AutoCalculate,ACTIVITY SCHEDULE,No,3.8200E-008,0,0
 People Internal Gains, 3RD STOREY:319 ROOM PEOPLE,BUILDING_OCC_SCH,3RD STOREY:319 ROOM,3.97,0.0,0.0,0.000,N/A,0.300,0.700,AutoCalculate,ACTIVITY SCHEDULE,No,3.8200E-008,0,0
 People Internal Gains, 3RD STOREY:347 ROOM PEOPLE,BUILDING_OCC_SCH,3RD STOREY:347 ROOM,7.84,0.0,0.0,0.000,N/A,0.300,0.700,AutoCalculate,ACTIVITY SCHEDULE,No,3.8200E-008,0,0
 People Internal Gains, 3RD STOREY:414 ROOM PEOPLE,BUILDING_OCC_SCH,3RD STOREY:414 ROOM,16.46,0.0,0.0,0.000,N/A,0.300,0.700,AutoCalculate,ACTIVITY SCHEDULE,No,3.8200E-008,0,0
 People Internal Gains, 2ND STOREY:417 ROOM PEOPLE,BUILDING_OCC_SCH,2ND STOREY:417 ROOM,24.01,0.0,0.0,0.000,N/A,0.300,0.700,AutoCalculate,ACTIVITY SCHEDULE,No,3.8200E-008,0,0
 People Internal Gains, 2ND STORY_A:370 ROOM PEOPLE,BUILDING_OCC_SCH,2ND STORY_A:370 ROOM,4.08,0.0,0.0,0.000,N/A,0.300,0.700,AutoCalculate,ACTIVITY SCHEDULE,No,3.8200E-008,0,0
 People Internal Gains, 3RD STOREY:298 ROOM PEOPLE,BUILDING_OCC_SCH,3RD STOREY:298 ROOM,47.10,0.0,0.0,0.000,N/A,0.300,0.700,AutoCalculate,ACTIVITY SCHEDULE,No,3.8200E-008,0,0
 People Internal Gains, 2ND STORY_A:376 ROOM PEOPLE,BUILDING_OCC_SCH,2ND STORY_A:376 ROOM,2.66,0.0,0.0,0.000,N/A,0.300,0.700,AutoCalculate,ACTIVITY SCHEDULE,No,3.8200E-008,0,0
 People Internal Gains, 3RD STORY_A:381 ROOM PEOPLE,BUILDING_OCC_SCH,3RD STORY_A:381 ROOM,3.51,0.0,0.0,0.000,N/A,0.300,0.700,AutoCalculate,ACTIVITY SCHEDULE,No,3.8200E-008,0,0
 People Internal Gains, 2ND STORY_A:365 ROOM PEOPLE,BUILDING_OCC_SCH,2ND STORY_A:365 ROOM,3.47,0.0,0.0,0.000,N/A,0.300,0.700,AutoCalculate,ACTIVITY SCHEDULE,No,3.8200E-008,0,0
 People Internal Gains, 2ND STOREY:408 ROOM PEOPLE,BUILDING_OCC_SCH,2ND STOREY:408 ROOM,25.48,0.0,0.0,0.000,N/A,0.300,0.700,AutoCalculate,ACTIVITY SCHEDULE,No,3.8200E-008,0,0
 People Internal Gains, 2ND STOREY:342 ROOM PEOPLE,BUILDING_OCC_SCH,2ND STOREY:342 ROOM,16.60,0.0,0.0,0.000,N/A,0.300,0.700,AutoCalculate,ACTIVITY SCHEDULE,No,3.8200E-008,0,0
 People Internal Gains, 2ND STOREY:168 ROOM PEOPLE,BUILDING_OCC_SCH,2ND STOREY:168 ROOM,36.42,0.0,0.0,0.000,N/A,0.300,0.700,AutoCalculate,ACTIVITY SCHEDULE,No,3.8200E-008,0,0
 People Internal Gains, 2ND STOREY:176 ROOM PEOPLE,BUILDING_OCC_SCH,2ND STOREY:176 ROOM,3.86,0.0,0.0,0.000,N/A,0.300,0.700,AutoCalculate,ACTIVITY SCHEDULE,No,3.8200E-008,0,0
 People Internal Gains, 2ND STOREY:209 ROOM PEOPLE,BUILDING_OCC_SCH,2ND STOREY:209 ROOM,3.45,0.0,0.0,0.000,N/A,0.300,0.700,AutoCalculate,ACTIVITY SCHEDULE,No,3.8200E-008,0,0
 People Internal Gains, 2ND STOREY:242 ROOM PEOPLE,BUILDING_OCC_SCH,2ND STOREY:242 ROOM,3.83,0.0,0.0,0.000,N/A,0.300,0.700,AutoCalculate,ACTIVITY SCHEDULE,No,3.8200E-008,0,0
 People Internal Gains, 3RD STOREY:300 ROOM PEOPLE,BUILDING_OCC_SCH,3RD STOREY:300 ROOM,20.36,0.0,0.0,0.000,N/A,0.300,0.700,AutoCalculate,ACTIVITY SCHEDULE,No,3.8200E-008,0,0
 People Internal Gains, 1ST STOREY:122 ROOM PEOPLE,BUILDING_OCC_SCH,1ST STOREY:122 ROOM,224.05,0.0,0.0,0.000,N/A,0.300,0.700,AutoCalculate,ACTIVITY SCHEDULE,No,3.8200E-008,0,0
 People Internal Gains, 3RD STORY_A:382 ROOM PEOPLE,BUILDING_OCC_SCH,3RD STORY_A:382 ROOM,1.48,0.0,0.0,0.000,N/A,0.300,0.700,AutoCalculate,ACTIVITY SCHEDULE,No,3.8200E-008,0,0
 People Internal Gains, 2ND STORY_A:385 ROOM PEOPLE,BUILDING_OCC_SCH,2ND STORY_A:385 ROOM,23.02,0.0,0.0,0.000,N/A,0.300,0.700,AutoCalculate,ACTIVITY SCHEDULE,No,3.8200E-008,0,0
 People Internal Gains, 1ST STOREY:113 ROOM PEOPLE,BUILDING_OCC_SCH,1ST STOREY:113 ROOM,7.59,0.0,0.0,0.000,N/A,0.300,0.700,AutoCalculate,ACTIVITY SCHEDULE,No,3.8200E-008,0,0
 People Internal Gains, 1ST STOREY:125 ROOM PEOPLE,BUILDING_OCC_SCH,1ST STOREY:125 ROOM,9.46,0.0,0.0,0.000,N/A,0.300,0.700,AutoCalculate,ACTIVITY SCHEDULE,No,3.8200E-008,0,0
 People Internal Gains, 3RD STOREY:411 ROOM PEOPLE,BUILDING_OCC_SCH,3RD STOREY:411 ROOM,268.40,0.0,0.0,0.000,N/A,0.300,0.700,AutoCalculate,ACTIVITY SCHEDULE,No,3.8200E-008,0,0
 People Internal Gains, 3RD STOREY:293 ROOM PEOPLE,BUILDING_OCC_SCH,3RD STOREY:293 ROOM,5.11,0.0,0.0,0.000,N/A,0.300,0.700,AutoCalculate,ACTIVITY SCHEDULE,No,3.8200E-008,0,0
 People Internal Gains, 3RD STORY_A:387 ROOM PEOPLE,BUILDING_OCC_SCH,3RD STORY_A:387 ROOM,8.11,0.0,0.0,0.000,N/A,0.300,0.700,AutoCalculate,ACTIVITY SCHEDULE,No,3.8200E-008,0,0
 People Internal Gains, 3RD STOREY:284 ROOM PEOPLE,BUILDING_OCC_SCH,3RD STOREY:284 ROOM,5.11,0.0,0.0,0.000,N/A,0.300,0.700,AutoCalculate,ACTIVITY SCHEDULE,No,3.8200E-008,0,0
 People Internal Gains, 3RD STOREY:316 ROOM PEOPLE,BUILDING_OCC_SCH,3RD STOREY:316 ROOM,3.91,0.0,0.0,0.000,N/A,0.300,0.700,AutoCalculate,ACTIVITY SCHEDULE,No,3.8200E-008,0,0
 People Internal Gains, 2ND STOREY:181 ROOM PEOPLE,BUILDING_OCC_SCH,2ND STOREY:181 ROOM,1.11,0.0,0.0,0.000,N/A,0.300,0.700,AutoCalculate,ACTIVITY SCHEDULE,No,3.8200E-008,0,0
 People Internal Gains, LOWER 1ST STOREY:144 ROOM PEOPLE,BUILDING_OCC_SCH,LOWER 1ST STOREY:144 ROOM,23.01,0.0,0.0,0.000,N/A,0.300,0.700,AutoCalculate,ACTIVITY SCHEDULE,No,3.8200E-008,0,0
 People Internal Gains, 1ST STOREY:348 ROOM PEOPLE,BUILDING_OCC_SCH,1ST STOREY:348 ROOM,133.49,0.0,0.0,0.000,N/A,0.300,0.700,AutoCalculate,ACTIVITY SCHEDULE,No,3.8200E-008,0,0
 People Internal Gains, 3RD STORY_A:378 ROOM PEOPLE,BUILDING_OCC_SCH,3RD STORY_A:378 ROOM,16.41,0.0,0.0,0.000,N/A,0.300,0.700,AutoCalculate,ACTIVITY SCHEDULE,No,3.8200E-008,0,0
 People Internal Gains, 2ND STOREY:245 ROOM PEOPLE,BUILDING_OCC_SCH,2ND STOREY:245 ROOM,37.07,0.0,0.0,0.000,N/A,0.300,0.700,AutoCalculate,ACTIVITY SCHEDULE,No,3.8200E-008,0,0
 People Internal Gains, 2ND STOREY:251 ROOM PEOPLE,BUILDING_OCC_SCH,2ND STOREY:251 ROOM,30.85,0.0,0.0,0.000,N/A,0.300,0.700,AutoCalculate,ACTIVITY SCHEDULE,No,3.8200E-008,0,0
 People Internal Gains, 3RD STOREY:283 ROOM PEOPLE,BUILDING_OCC_SCH,3RD STOREY:283 ROOM,46.51,0.0,0.0,0.000,N/A,0.300,0.700,AutoCalculate,ACTIVITY SCHEDULE,No,3.8200E-008,0,0
 People Internal Gains, 3RD STOREY:405 ROOM PEOPLE,BUILDING_OCC_SCH,3RD STOREY:405 ROOM,10.66,0.0,0.0,0.000,N/A,0.300,0.700,AutoCalculate,ACTIVITY SCHEDULE,No,3.8200E-008,0,0
 People Internal Gains, 3RD STORY_A:377 ROOM PEOPLE,BUILDING_OCC_SCH,3RD STORY_A:377 ROOM,35.22,0.0,0.0,0.000,N/A,0.300,0.700,AutoCalculate,ACTIVITY SCHEDULE,No,3.8200E-008,0,0
 People Internal Gains, 2ND STOREY:241 ROOM PEOPLE,BUILDING_OCC_SCH,2ND STOREY:241 ROOM,3.47,0.0,0.0,0.000,N/A,0.300,0.700,AutoCalculate,ACTIVITY SCHEDULE,No,3.8200E-008,0,0
 People Internal Gains, 2ND STOREY:167 ROOM PEOPLE,BUILDING_OCC_SCH,2ND STOREY:167 ROOM,16.71,0.0,0.0,0.000,N/A,0.300,0.700,AutoCalculate,ACTIVITY SCHEDULE,No,3.8200E-008,0,0
 People Internal Gains, 2ND STOREY:211 ROOM PEOPLE,BUILDING_OCC_SCH,2ND STOREY:211 ROOM,4.04,0.0,0.0,0.000,N/A,0.300,0.700,AutoCalculate,ACTIVITY SCHEDULE,No,3.8200E-008,0,0
 People Internal Gains, 2ND STOREY:253 ROOM PEOPLE,BUILDING_OCC_SCH,2ND STOREY:253 ROOM,16.79,0.0,0.0,0.000,N/A,0.300,0.700,AutoCalculate,ACTIVITY SCHEDULE,No,3.8200E-008,0,0
 People Internal Gains, 1ST STOREY:40 ROOM PEOPLE,BUILDING_OCC_SCH,1ST STOREY:40 ROOM,17.49,0.0,0.0,0.000,N/A,0.300,0.700,AutoCalculate,ACTIVITY SCHEDULE,No,3.8200E-008,0,0
 People Internal Gains, 3RD STOREY:288 ROOM PEOPLE,BUILDING_OCC_SCH,3RD STOREY:288 ROOM,20.41,0.0,0.0,0.000,N/A,0.300,0.700,AutoCalculate,ACTIVITY SCHEDULE,No,3.8200E-008,0,0
 People Internal Gains, 2ND STOREY:195 ROOM PEOPLE,BUILDING_OCC_SCH,2ND STOREY:195 ROOM,16.78,0.0,0.0,0.000,N/A,0.300,0.700,AutoCalculate,ACTIVITY SCHEDULE,No,3.8200E-008,0,0
 People Internal Gains, LOWER 1ST STOREY:130 ROOM PEOPLE,BUILDING_OCC_SCH,LOWER 1ST STOREY:130 ROOM,8.23,0.0,0.0,0.000,N/A,0.300,0.700,AutoCalculate,ACTIVITY SCHEDULE,No,3.8200E-008,0,0
 People Internal Gains, 1ST STOREY:98 ROOM PEOPLE,BUILDING_OCC_SCH,1ST STOREY:98 ROOM,9.90,0.0,0.0,0.000,N/A,0.300,0.700,AutoCalculate,ACTIVITY SCHEDULE,No,3.8200E-008,0,0
 People Internal Gains, 1ST STOREY:100 ROOM PEOPLE,BUILDING_OCC_SCH,1ST STOREY:100 ROOM,54.51,0.0,0.0,0.000,N/A,0.300,0.700,AutoCalculate,ACTIVITY SCHEDULE,No,3.8200E-008,0,0
 People Internal Gains, 2ND STORY_A:366 ROOM PEOPLE,BUILDING_OCC_SCH,2ND STORY_A:366 ROOM,19.40,0.0,0.0,0.000,N/A,0.300,0.700,AutoCalculate,ACTIVITY SCHEDULE,No,3.8200E-008,0,0
 People Internal Gains, 2ND STOREY:224 ROOM PEOPLE,BUILDING_OCC_SCH,2ND STOREY:224 ROOM,25.95,0.0,0.0,0.000,N/A,0.300,0.700,AutoCalculate,ACTIVITY SCHEDULE,No,3.8200E-008,0,0
 People Internal Gains, 3RD STOREY:426 ROOM PEOPLE,BUILDING_OCC_SCH,3RD STOREY:426 ROOM,32.69,0.0,0.0,0.000,N/A,0.300,0.700,AutoCalculate,ACTIVITY SCHEDULE,No,3.8200E-008,0,0
 People Internal Gains, LOWER 1ST STOREY:356 ROOM PEOPLE,BUILDING_OCC_SCH,LOWER 1ST STOREY:356 ROOM,50.86,0.0,0.0,0.000,N/A,0.300,0.700,AutoCalculate,ACTIVITY SCHEDULE,No,3.8200E-008,0,0
 People Internal Gains, 2ND STOREY:225 ROOM PEOPLE,BUILDING_OCC_SCH,2ND STOREY:225 ROOM,2.05,0.0,0.0,0.000,N/A,0.300,0.700,AutoCalculate,ACTIVITY SCHEDULE,No,3.8200E-008,0,0
 People Internal Gains, LOWER 1ST STOREY:139 ROOM PEOPLE,BUILDING_OCC_SCH,LOWER 1ST STOREY:139 ROOM,17.19,0.0,0.0,0.000,N/A,0.300,0.700,AutoCalculate,ACTIVITY SCHEDULE,No,3.8200E-008,0,0
 People Internal Gains, 1ST STOREY:102 ROOM PEOPLE,BUILDING_OCC_SCH,1ST STOREY:102 ROOM,1.14,0.0,0.0,0.000,N/A,0.300,0.700,AutoCalculate,ACTIVITY SCHEDULE,No,3.8200E-008,0,0
 People Internal Gains, 1ST STOREY:33 ROOM PEOPLE,BUILDING_OCC_SCH,1ST STOREY:33 ROOM,3.09,0.0,0.0,0.000,N/A,0.300,0.700,AutoCalculate,ACTIVITY SCHEDULE,No,3.8200E-008,0,0
 People Internal Gains, 3RD STORY_A:379 ROOM PEOPLE,BUILDING_OCC_SCH,3RD STORY_A:379 ROOM,3.97,0.0,0.0,0.000,N/A,0.300,0.700,AutoCalculate,ACTIVITY SCHEDULE,No,3.8200E-008,0,0
 People Internal Gains, 2ND STORY_A:368 ROOM PEOPLE,BUILDING_OCC_SCH,2ND STORY_A:368 ROOM,12.43,0.0,0.0,0.000,N/A,0.300,0.700,AutoCalculate,ACTIVITY SCHEDULE,No,3.8200E-008,0,0
 People Internal Gains, 2ND STORY_A:369 ROOM PEOPLE,BUILDING_OCC_SCH,2ND STORY_A:369 ROOM,12.43,0.0,0.0,0.000,N/A,0.300,0.700,AutoCalculate,ACTIVITY SCHEDULE,No,3.8200E-008,0,0
 People Internal Gains, 3RD STOREY:294 ROOM PEOPLE,BUILDING_OCC_SCH,3RD STOREY:294 ROOM,4.10,0.0,0.0,0.000,N/A,0.300,0.700,AutoCalculate,ACTIVITY SCHEDULE,No,3.8200E-008,0,0
 People Internal Gains, 3RD STORY_A:412 ROOM PEOPLE,BUILDING_OCC_SCH,3RD STORY_A:412 ROOM,6.77,0.0,0.0,0.000,N/A,0.300,0.700,AutoCalculate,ACTIVITY SCHEDULE,No,3.8200E-008,0,0
 People Internal Gains, LOWER 1ST STOREY:235 ROOM PEOPLE,BUILDING_OCC_SCH,LOWER 1ST STOREY:235 ROOM,3.54,0.0,0.0,0.000,N/A,0.300,0.700,AutoCalculate,ACTIVITY SCHEDULE,No,3.8200E-008,0,0
 People Internal Gains, 3RD STOREY:285 ROOM PEOPLE,BUILDING_OCC_SCH,3RD STOREY:285 ROOM,14.57,0.0,0.0,0.000,N/A,0.300,0.700,AutoCalculate,ACTIVITY SCHEDULE,No,3.8200E-008,0,0
 People Internal Gains, 2ND STOREY:173 ROOM PEOPLE,BUILDING_OCC_SCH,2ND STOREY:173 ROOM,90.02,0.0,0.0,0.000,N/A,0.300,0.700,AutoCalculate,ACTIVITY SCHEDULE,No,3.8200E-008,0,0
 People Internal Gains, 3RD STOREY:302 ROOM PEOPLE,BUILDING_OCC_SCH,3RD STOREY:302 ROOM,192.57,0.0,0.0,0.000,N/A,0.300,0.700,AutoCalculate,ACTIVITY SCHEDULE,No,3.8200E-008,0,0
 People Internal Gains, 2ND STOREY:203 ROOM PEOPLE,BUILDING_OCC_SCH,2ND STOREY:203 ROOM,28.36,0.0,0.0,0.000,N/A,0.300,0.700,AutoCalculate,ACTIVITY SCHEDULE,No,3.8200E-008,0,0
 People Internal Gains, 3RD STOREY:301 ROOM PEOPLE,BUILDING_OCC_SCH,3RD STOREY:301 ROOM,14.94,0.0,0.0,0.000,N/A,0.300,0.700,AutoCalculate,ACTIVITY SCHEDULE,No,3.8200E-008,0,0
 People Internal Gains, 2ND STORY_A:375 ROOM PEOPLE,BUILDING_OCC_SCH,2ND STORY_A:375 ROOM,6.97,0.0,0.0,0.000,N/A,0.300,0.700,AutoCalculate,ACTIVITY SCHEDULE,No,3.8200E-008,0,0
 People Internal Gains, 1ST STOREY:421 ROOM PEOPLE,BUILDING_OCC_SCH,1ST STOREY:421 ROOM,16.59,0.0,0.0,0.000,N/A,0.300,0.700,AutoCalculate,ACTIVITY SCHEDULE,No,3.8200E-008,0,0
 People Internal Gains, LOWER 1ST STOREY:128 ROOM PEOPLE,BUILDING_OCC_SCH,LOWER 1ST STOREY:128 ROOM,21.65,0.0,0.0,0.000,N/A,0.300,0.700,AutoCalculate,ACTIVITY SCHEDULE,No,3.8200E-008,0,0
 People Internal Gains, 2ND STORY_A:364 ROOM PEOPLE,BUILDING_OCC_SCH,2ND STORY_A:364 ROOM,17.18,0.0,0.0,0.000,N/A,0.300,0.700,AutoCalculate,ACTIVITY SCHEDULE,No,3.8200E-008,0,0
 People Internal Gains, 1ST STOREY:237 ROOM PEOPLE,BUILDING_OCC_SCH,1ST STOREY:237 ROOM,3.39,0.0,0.0,0.000,N/A,0.300,0.700,AutoCalculate,ACTIVITY SCHEDULE,No,3.8200E-008,0,0
! <Lights Internal Gains - Nominal>,Name,Schedule Name,Zone Name,Zone Floor Area {m2},# Zone Occupants,Lighting Level {W},Lights/Floor Area {W/m2},Lights per person {W/person},Fraction Return Air,Fraction Radiant,Fraction Short Wave,Fraction Convected,Fraction Replaceable,End-Use Category,Nominal Minimum Lighting Level {W},Nominal Maximum Lighting Level {W}
 Lights Internal Gains, 2ND STORY_A:384 ROOM LIGHTS,BUILDING_LIGHT_SCH,2ND STORY_A:384 ROOM,8.00,0.0,28.531,3.566,N/A,0.000,0.320,0.230,0.450,0.450,General,4.443,24.708
 Lights Internal Gains, 2ND STORY_A:359 ROOM LIGHTS,BUILDING_LIGHT_SCH,2ND STORY_A:359 ROOM,61.93,0.0,220.852,3.566,N/A,0.000,0.320,0.230,0.450,0.450,General,34.392,191.254
 Lights Internal Gains, 3RD STOREY:415 ROOM LIGHTS,BUILDING_LIGHT_SCH,3RD STOREY:415 ROOM,204.45,0.0,729.075,3.566,N/A,0.000,0.320,0.230,0.450,0.450,General,113.533,631.366
 Lights Internal Gains, 3RD STORY_A:419 ROOM LIGHTS,BUILDING_LIGHT_SCH,3RD STORY_A:419 ROOM,10.29,0.0,36.686,3.566,N/A,0.000,0.320,0.230,0.450,0.450,General,5.713,31.770
 Lights Internal Gains, 2ND STOREY:197 ROOM LIGHTS,BUILDING_LIGHT_SCH,2ND STOREY:197 ROOM,149.97,0.0,534.787,3.566,N/A,0.000,0.320,0.230,0.450,0.450,General,83.278,463.117
 Lights Internal Gains, 2ND STOREY:206 ROOM LIGHTS,BUILDING_LIGHT_SCH,2ND STOREY:206 ROOM,2.68,0.0,9.540,3.566,N/A,0.000,0.320,0.230,0.450,0.450,General,1.486,8.261
 Lights Internal Gains, LOWER 1ST STOREY:354 ROOM LIGHTS,BUILDING_LIGHT_SCH,LOWER 1ST STOREY:354 ROOM,29.43,0.0,104.959,3.566,N/A,0.000,0.320,0.230,0.450,0.450,General,16.344,90.893
 Lights Internal Gains, LOWER 1ST STOREY:127 ROOM LIGHTS,BUILDING_LIGHT_SCH,LOWER 1ST STOREY:127 ROOM,34.60,0.0,123.382,3.566,N/A,0.000,0.320,0.230,0.450,0.450,General,19.213,106.846
 Lights Internal Gains, 2ND STORY_A:371 ROOM LIGHTS,BUILDING_LIGHT_SCH,2ND STORY_A:371 ROOM,166.29,0.0,592.997,3.566,N/A,0.000,0.320,0.230,0.450,0.450,General,92.343,513.526
 Lights Internal Gains, 1ST STOREY:126 ROOM LIGHTS,BUILDING_LIGHT_SCH,1ST STOREY:126 ROOM,1.48,0.0,5.273,3.566,N/A,0.000,0.320,0.230,0.450,0.450,General,0.821,4.567
 Lights Internal Gains, 3RD STOREY:318 ROOM LIGHTS,BUILDING_LIGHT_SCH,3RD STOREY:318 ROOM,9.66,0.0,34.452,3.566,N/A,0.000,0.320,0.230,0.450,0.450,General,5.365,29.835
 Lights Internal Gains, 1ST STOREY:420 ROOM LIGHTS,BUILDING_LIGHT_SCH,1ST STOREY:420 ROOM,10.74,0.0,38.282,3.566,N/A,0.000,0.320,0.230,0.450,0.450,General,5.961,33.152
 Lights Internal Gains, 2ND STOREY:194 ROOM LIGHTS,BUILDING_LIGHT_SCH,2ND STOREY:194 ROOM,12.21,0.0,43.531,3.566,N/A,0.000,0.320,0.230,0.450,0.450,General,6.779,37.697
 Lights Internal Gains, 2ND STORY_A:367 ROOM LIGHTS,BUILDING_LIGHT_SCH,2ND STORY_A:367 ROOM,30.50,0.0,108.772,3.566,N/A,0.000,0.320,0.230,0.450,0.450,General,16.938,94.195
 Lights Internal Gains, 3RD STOREY:291 ROOM LIGHTS,BUILDING_LIGHT_SCH,3RD STOREY:291 ROOM,4.25,0.0,15.146,3.566,N/A,0.000,0.320,0.230,0.450,0.450,General,2.359,13.116
 Lights Internal Gains, 3RD STOREY:320 ROOM LIGHTS,BUILDING_LIGHT_SCH,3RD STOREY:320 ROOM,16.70,0.0,59.538,3.566,N/A,0.000,0.320,0.230,0.450,0.450,General,9.271,51.559
 Lights Internal Gains, LOWER 1ST STOREY:143 ROOM LIGHTS,BUILDING_LIGHT_SCH,LOWER 1ST STOREY:143 ROOM,25.31,0.0,90.265,3.566,N/A,0.000,0.320,0.230,0.450,0.450,General,14.056,78.168
 Lights Internal Gains, 2ND STOREY:392 ROOM LIGHTS,BUILDING_LIGHT_SCH,2ND STOREY:392 ROOM,211.33,0.0,753.611,3.566,N/A,0.000,0.320,0.230,0.450,0.450,General,117.354,652.614
 Lights Internal Gains, 2ND STOREY:249 ROOM LIGHTS,BUILDING_LIGHT_SCH,2ND STOREY:249 ROOM,4.04,0.0,14.407,3.566,N/A,0.000,0.320,0.230,0.450,0.450,General,2.244,12.476
 Lights Internal Gains, 3RD STOREY:308 ROOM LIGHTS,BUILDING_LIGHT_SCH,3RD STOREY:308 ROOM,1.56,0.0,5.571,3.566,N/A,0.000,0.320,0.230,0.450,0.450,General,0.868,4.824
 Lights Internal Gains, 1ST STOREY:236 ROOM LIGHTS,BUILDING_LIGHT_SCH,1ST STOREY:236 ROOM,3.50,0.0,12.492,3.566,N/A,0.000,0.320,0.230,0.450,0.450,General,1.945,10.818
 Lights Internal Gains, 1ST STOREY:123 ROOM LIGHTS,BUILDING_LIGHT_SCH,1ST STOREY:123 ROOM,16.39,0.0,58.444,3.566,N/A,0.000,0.320,0.230,0.450,0.450,General,9.101,50.611
 Lights Internal Gains, 1ST STOREY:44 ROOM LIGHTS,BUILDING_LIGHT_SCH,1ST STOREY:44 ROOM,287.27,0.0,1024.403,3.566,N/A,0.000,0.320,0.230,0.450,0.450,General,159.522,887.116
 Lights Internal Gains, 3RD STOREY:310 ROOM LIGHTS,BUILDING_LIGHT_SCH,3RD STOREY:310 ROOM,17.16,0.0,61.197,3.566,N/A,0.000,0.320,0.230,0.450,0.450,General,9.530,52.996
 Lights Internal Gains, 1ST STOREY:99 ROOM LIGHTS,BUILDING_LIGHT_SCH,1ST STOREY:99 ROOM,22.77,0.0,81.202,3.566,N/A,0.000,0.320,0.230,0.450,0.450,General,12.645,70.320
 Lights Internal Gains, 3RD STORY_A:380 ROOM LIGHTS,BUILDING_LIGHT_SCH,3RD STORY_A:380 ROOM,311.52,0.0,1110.876,3.566,N/A,0.000,0.320,0.230,0.450,0.450,General,172.988,962.000
 Lights Internal Gains, LOWER 1ST STOREY:129 ROOM LIGHTS,BUILDING_LIGHT_SCH,LOWER 1ST STOREY:129 ROOM,7.49,0.0,26.700,3.566,N/A,0.000,0.320,0.230,0.450,0.450,General,4.158,23.122
 Lights Internal Gains, LOWER 1ST STOREY:134 ROOM LIGHTS,BUILDING_LIGHT_SCH,LOWER 1ST STOREY:134 ROOM,17.57,0.0,62.657,3.566,N/A,0.000,0.320,0.230,0.450,0.450,General,9.757,54.260
 Lights Internal Gains, 2ND STOREY:223 ROOM LIGHTS,BUILDING_LIGHT_SCH,2ND STOREY:223 ROOM,17.11,0.0,61.004,3.566,N/A,0.000,0.320,0.230,0.450,0.450,General,9.500,52.828
 Lights Internal Gains, 3RD STOREY:309 ROOM LIGHTS,BUILDING_LIGHT_SCH,3RD STOREY:309 ROOM,20.49,0.0,73.057,3.566,N/A,0.000,0.320,0.230,0.450,0.450,General,11.377,63.266
 Lights Internal Gains, 2ND STOREY:169 ROOM LIGHTS,BUILDING_LIGHT_SCH,2ND STOREY:169 ROOM,12.06,0.0,43.019,3.566,N/A,0.000,0.320,0.230,0.450,0.450,General,6.699,37.253
 Lights Internal Gains, 3RD STOREY:305 ROOM LIGHTS,BUILDING_LIGHT_SCH,3RD STOREY:305 ROOM,3.47,0.0,12.381,3.566,N/A,0.000,0.320,0.230,0.450,0.450,General,1.928,10.722
 Lights Internal Gains, 2ND STOREY:234 ROOM LIGHTS,BUILDING_LIGHT_SCH,2ND STOREY:234 ROOM,283.63,0.0,1011.424,3.566,N/A,0.000,0.320,0.230,0.450,0.450,General,157.501,875.876
 Lights Internal Gains, 2ND STOREY:240 ROOM LIGHTS,BUILDING_LIGHT_SCH,2ND STOREY:240 ROOM,3.93,0.0,14.029,3.566,N/A,0.000,0.320,0.230,0.450,0.450,General,2.185,12.149
 Lights Internal Gains, 2ND STOREY:252 ROOM LIGHTS,BUILDING_LIGHT_SCH,2ND STOREY:252 ROOM,3.80,0.0,13.558,3.566,N/A,0.000,0.320,0.230,0.450,0.450,General,2.111,11.741
 Lights Internal Gains, 1ST STOREY:103 ROOM LIGHTS,BUILDING_LIGHT_SCH,1ST STOREY:103 ROOM,17.90,0.0,63.821,3.566,N/A,0.000,0.320,0.230,0.450,0.450,General,9.938,55.268
 Lights Internal Gains, LOWER 1ST STOREY:142 ROOM LIGHTS,BUILDING_LIGHT_SCH,LOWER 1ST STOREY:142 ROOM,58.90,0.0,210.037,3.566,N/A,0.000,0.320,0.230,0.450,0.450,General,32.707,181.888
 Lights Internal Gains, LOWER 1ST STOREY:135 ROOM LIGHTS,BUILDING_LIGHT_SCH,LOWER 1ST STOREY:135 ROOM,25.00,0.0,89.153,3.566,N/A,0.000,0.320,0.230,0.450,0.450,General,13.883,77.205
 Lights Internal Gains, 1ST STOREY:34 ROOM LIGHTS,BUILDING_LIGHT_SCH,1ST STOREY:34 ROOM,31.63,0.0,112.776,3.566,N/A,0.000,0.320,0.230,0.450,0.450,General,17.562,97.662
 Lights Internal Gains, 3RD STOREY:410 ROOM LIGHTS,BUILDING_LIGHT_SCH,3RD STOREY:410 ROOM,141.36,0.0,504.093,3.566,N/A,0.000,0.320,0.230,0.450,0.450,General,78.498,436.536
 Lights Internal Gains, 3RD STOREY:319 ROOM LIGHTS,BUILDING_LIGHT_SCH,3RD STOREY:319 ROOM,3.97,0.0,14.163,3.566,N/A,0.000,0.320,0.230,0.450,0.450,General,2.205,12.265
 Lights Internal Gains, 3RD STOREY:347 ROOM LIGHTS,BUILDING_LIGHT_SCH,3RD STOREY:347 ROOM,7.84,0.0,27.942,3.566,N/A,0.000,0.320,0.230,0.450,0.450,General,4.351,24.197
 Lights Internal Gains, 3RD STOREY:414 ROOM LIGHTS,BUILDING_LIGHT_SCH,3RD STOREY:414 ROOM,16.46,0.0,58.707,3.566,N/A,0.000,0.320,0.230,0.450,0.450,General,9.142,50.840
 Lights Internal Gains, 2ND STOREY:417 ROOM LIGHTS,BUILDING_LIGHT_SCH,2ND STOREY:417 ROOM,24.01,0.0,85.622,3.566,N/A,0.000,0.320,0.230,0.450,0.450,General,13.333,74.147
 Lights Internal Gains, 2ND STORY_A:370 ROOM LIGHTS,BUILDING_LIGHT_SCH,2ND STORY_A:370 ROOM,4.08,0.0,14.543,3.566,N/A,0.000,0.320,0.230,0.450,0.450,General,2.265,12.594
 Lights Internal Gains, 3RD STOREY:298 ROOM LIGHTS,BUILDING_LIGHT_SCH,3RD STOREY:298 ROOM,47.10,0.0,167.972,3.566,N/A,0.000,0.320,0.230,0.450,0.450,General,26.157,145.461
 Lights Internal Gains, 2ND STORY_A:376 ROOM LIGHTS,BUILDING_LIGHT_SCH,2ND STORY_A:376 ROOM,2.66,0.0,9.481,3.566,N/A,0.000,0.320,0.230,0.450,0.450,General,1.476,8.211
 Lights Internal Gains, 3RD STORY_A:381 ROOM LIGHTS,BUILDING_LIGHT_SCH,3RD STORY_A:381 ROOM,3.51,0.0,12.512,3.566,N/A,0.000,0.320,0.230,0.450,0.450,General,1.948,10.835
 Lights Internal Gains, 2ND STORY_A:365 ROOM LIGHTS,BUILDING_LIGHT_SCH,2ND STORY_A:365 ROOM,3.47,0.0,12.387,3.566,N/A,0.000,0.320,0.230,0.450,0.450,General,1.929,10.727
 Lights Internal Gains, 2ND STOREY:408 ROOM LIGHTS,BUILDING_LIGHT_SCH,2ND STOREY:408 ROOM,25.48,0.0,90.848,3.566,N/A,0.000,0.320,0.230,0.450,0.450,General,14.147,78.673
 Lights Internal Gains, 2ND STOREY:342 ROOM LIGHTS,BUILDING_LIGHT_SCH,2ND STOREY:342 ROOM,16.60,0.0,59.186,3.566,N/A,0.000,0.320,0.230,0.450,0.450,General,9.217,51.254
 Lights Internal Gains, 2ND STOREY:168 ROOM LIGHTS,BUILDING_LIGHT_SCH,2ND STOREY:168 ROOM,36.42,0.0,129.858,3.566,N/A,0.000,0.320,0.230,0.450,0.450,General,20.222,112.455
 Lights Internal Gains, 2ND STOREY:176 ROOM LIGHTS,BUILDING_LIGHT_SCH,2ND STOREY:176 ROOM,3.86,0.0,13.750,3.566,N/A,0.000,0.320,0.230,0.450,0.450,General,2.141,11.908
 Lights Internal Gains, 2ND STOREY:209 ROOM LIGHTS,BUILDING_LIGHT_SCH,2ND STOREY:209 ROOM,3.45,0.0,12.305,3.566,N/A,0.000,0.320,0.230,0.450,0.450,General,1.916,10.656
 Lights Internal Gains, 2ND STOREY:242 ROOM LIGHTS,BUILDING_LIGHT_SCH,2ND STOREY:242 ROOM,3.83,0.0,13.653,3.566,N/A,0.000,0.320,0.230,0.450,0.450,General,2.126,11.823
 Lights Internal Gains, 3RD STOREY:300 ROOM LIGHTS,BUILDING_LIGHT_SCH,3RD STOREY:300 ROOM,20.36,0.0,72.612,3.566,N/A,0.000,0.320,0.230,0.450,0.450,General,11.307,62.880
 Lights Internal Gains, 1ST STOREY:122 ROOM LIGHTS,BUILDING_LIGHT_SCH,1ST STOREY:122 ROOM,224.05,0.0,798.952,3.566,N/A,0.000,0.320,0.230,0.450,0.450,General,124.415,691.879
 Lights Internal Gains, 3RD STORY_A:382 ROOM LIGHTS,BUILDING_LIGHT_SCH,3RD STORY_A:382 ROOM,1.48,0.0,5.267,3.566,N/A,0.000,0.320,0.230,0.450,0.450,General,0.820,4.561
 Lights Internal Gains, 2ND STORY_A:385 ROOM LIGHTS,BUILDING_LIGHT_SCH,2ND STORY_A:385 ROOM,23.02,0.0,82.079,3.566,N/A,0.000,0.320,0.230,0.450,0.450,General,12.781,71.079
 Lights Internal Gains, 1ST STOREY:113 ROOM LIGHTS,BUILDING_LIGHT_SCH,1ST STOREY:113 ROOM,7.59,0.0,27.069,3.566,N/A,0.000,0.320,0.230,0.450,0.450,General,4.215,23.441
 Lights Internal Gains, 1ST STOREY:125 ROOM LIGHTS,BUILDING_LIGHT_SCH,1ST STOREY:125 ROOM,9.46,0.0,33.749,3.566,N/A,0.000,0.320,0.230,0.450,0.450,General,5.255,29.226
 Lights Internal Gains, 3RD STOREY:411 ROOM LIGHTS,BUILDING_LIGHT_SCH,3RD STOREY:411 ROOM,268.40,0.0,957.117,3.566,N/A,0.000,0.320,0.230,0.450,0.450,General,149.044,828.847
 Lights Internal Gains, 3RD STOREY:293 ROOM LIGHTS,BUILDING_LIGHT_SCH,3RD STOREY:293 ROOM,5.11,0.0,18.212,3.566,N/A,0.000,0.320,0.230,0.450,0.450,General,2.836,15.771
 Lights Internal Gains, 3RD STORY_A:387 ROOM LIGHTS,BUILDING_LIGHT_SCH,3RD STORY_A:387 ROOM,8.11,0.0,28.928,3.566,N/A,0.000,0.320,0.230,0.450,0.450,General,4.505,25.051
 Lights Internal Gains, 3RD STOREY:284 ROOM LIGHTS,BUILDING_LIGHT_SCH,3RD STOREY:284 ROOM,5.11,0.0,18.207,3.566,N/A,0.000,0.320,0.230,0.450,0.450,General,2.835,15.767
 Lights Internal Gains, 3RD STOREY:316 ROOM LIGHTS,BUILDING_LIGHT_SCH,3RD STOREY:316 ROOM,3.91,0.0,13.940,3.566,N/A,0.000,0.320,0.230,0.450,0.450,General,2.171,12.072
 Lights Internal Gains, 2ND STOREY:181 ROOM LIGHTS,BUILDING_LIGHT_SCH,2ND STOREY:181 ROOM,1.11,0.0,3.954,3.566,N/A,0.000,0.320,0.230,0.450,0.450,General,0.616,3.424
 Lights Internal Gains, LOWER 1ST STOREY:144 ROOM LIGHTS,BUILDING_LIGHT_SCH,LOWER 1ST STOREY:144 ROOM,23.01,0.0,82.069,3.566,N/A,0.000,0.320,0.230,0.450,0.450,General,12.780,71.070
 Lights Internal Gains, 1ST STOREY:348 ROOM LIGHTS,BUILDING_LIGHT_SCH,1ST STOREY:348 ROOM,133.49,0.0,476.034,3.566,N/A,0.000,0.320,0.230,0.450,0.450,General,74.129,412.238
 Lights Internal Gains, 3RD STORY_A:378 ROOM LIGHTS,BUILDING_LIGHT_SCH,3RD STORY_A:378 ROOM,16.41,0.0,58.514,3.566,N/A,0.000,0.320,0.230,0.450,0.450,General,9.112,50.672
 Lights Internal Gains, 2ND STOREY:245 ROOM LIGHTS,BUILDING_LIGHT_SCH,2ND STOREY:245 ROOM,37.07,0.0,132.185,3.566,N/A,0.000,0.320,0.230,0.450,0.450,General,20.584,114.470
 Lights Internal Gains, 2ND STOREY:251 ROOM LIGHTS,BUILDING_LIGHT_SCH,2ND STOREY:251 ROOM,30.85,0.0,110.016,3.566,N/A,0.000,0.320,0.230,0.450,0.450,General,17.132,95.272
 Lights Internal Gains, 3RD STOREY:283 ROOM LIGHTS,BUILDING_LIGHT_SCH,3RD STOREY:283 ROOM,46.51,0.0,165.841,3.566,N/A,0.000,0.320,0.230,0.450,0.450,General,25.825,143.616
 Lights Internal Gains, 3RD STOREY:405 ROOM LIGHTS,BUILDING_LIGHT_SCH,3RD STOREY:405 ROOM,10.66,0.0,38.012,3.566,N/A,0.000,0.320,0.230,0.450,0.450,General,5.919,32.918
 Lights Internal Gains, 3RD STORY_A:377 ROOM LIGHTS,BUILDING_LIGHT_SCH,3RD STORY_A:377 ROOM,35.22,0.0,125.600,3.566,N/A,0.000,0.320,0.230,0.450,0.450,General,19.559,108.768
 Lights Internal Gains, 2ND STOREY:241 ROOM LIGHTS,BUILDING_LIGHT_SCH,2ND STOREY:241 ROOM,3.47,0.0,12.378,3.566,N/A,0.000,0.320,0.230,0.450,0.450,General,1.928,10.719
 Lights Internal Gains, 2ND STOREY:167 ROOM LIGHTS,BUILDING_LIGHT_SCH,2ND STOREY:167 ROOM,16.71,0.0,59.573,3.566,N/A,0.000,0.320,0.230,0.450,0.450,General,9.277,51.589
 Lights Internal Gains, 2ND STOREY:211 ROOM LIGHTS,BUILDING_LIGHT_SCH,2ND STOREY:211 ROOM,4.04,0.0,14.404,3.566,N/A,0.000,0.320,0.230,0.450,0.450,General,2.243,12.473
 Lights Internal Gains, 2ND STOREY:253 ROOM LIGHTS,BUILDING_LIGHT_SCH,2ND STOREY:253 ROOM,16.79,0.0,59.857,3.566,N/A,0.000,0.320,0.230,0.450,0.450,General,9.321,51.835
 Lights Internal Gains, 1ST STOREY:40 ROOM LIGHTS,BUILDING_LIGHT_SCH,1ST STOREY:40 ROOM,17.49,0.0,62.373,3.566,N/A,0.000,0.320,0.230,0.450,0.450,General,9.713,54.014
 Lights Internal Gains, 3RD STOREY:288 ROOM LIGHTS,BUILDING_LIGHT_SCH,3RD STOREY:288 ROOM,20.41,0.0,72.781,3.566,N/A,0.000,0.320,0.230,0.450,0.450,General,11.334,63.027
 Lights Internal Gains, 2ND STOREY:195 ROOM LIGHTS,BUILDING_LIGHT_SCH,2ND STOREY:195 ROOM,16.78,0.0,59.841,3.566,N/A,0.000,0.320,0.230,0.450,0.450,General,9.319,51.821
 Lights Internal Gains, LOWER 1ST STOREY:130 ROOM LIGHTS,BUILDING_LIGHT_SCH,LOWER 1ST STOREY:130 ROOM,8.23,0.0,29.349,3.566,N/A,0.000,0.320,0.230,0.450,0.450,General,4.570,25.415
 Lights Internal Gains, 1ST STOREY:98 ROOM LIGHTS,BUILDING_LIGHT_SCH,1ST STOREY:98 ROOM,9.90,0.0,35.320,3.566,N/A,0.000,0.320,0.230,0.450,0.450,General,5.500,30.587
 Lights Internal Gains, 1ST STOREY:100 ROOM LIGHTS,BUILDING_LIGHT_SCH,1ST STOREY:100 ROOM,54.51,0.0,194.370,3.566,N/A,0.000,0.320,0.230,0.450,0.450,General,30.268,168.321
 Lights Internal Gains, 2ND STORY_A:366 ROOM LIGHTS,BUILDING_LIGHT_SCH,2ND STORY_A:366 ROOM,19.40,0.0,69.182,3.566,N/A,0.000,0.320,0.230,0.450,0.450,General,10.773,59.910
 Lights Internal Gains, 2ND STOREY:224 ROOM LIGHTS,BUILDING_LIGHT_SCH,2ND STOREY:224 ROOM,25.95,0.0,92.522,3.566,N/A,0.000,0.320,0.230,0.450,0.450,General,14.408,80.122
 Lights Internal Gains, 3RD STOREY:426 ROOM LIGHTS,BUILDING_LIGHT_SCH,3RD STOREY:426 ROOM,32.69,0.0,116.587,3.566,N/A,0.000,0.320,0.230,0.450,0.450,General,18.155,100.963
 Lights Internal Gains, LOWER 1ST STOREY:356 ROOM LIGHTS,BUILDING_LIGHT_SCH,LOWER 1ST STOREY:356 ROOM,50.86,0.0,181.377,3.566,N/A,0.000,0.320,0.230,0.450,0.450,General,28.244,157.070
 Lights Internal Gains, 2ND STOREY:225 ROOM LIGHTS,BUILDING_LIGHT_SCH,2ND STOREY:225 ROOM,2.05,0.0,7.309,3.566,N/A,0.000,0.320,0.230,0.450,0.450,General,1.138,6.329
 Lights Internal Gains, LOWER 1ST STOREY:139 ROOM LIGHTS,BUILDING_LIGHT_SCH,LOWER 1ST STOREY:139 ROOM,17.19,0.0,61.309,3.566,N/A,0.000,0.320,0.230,0.450,0.450,General,9.547,53.093
 Lights Internal Gains, 1ST STOREY:102 ROOM LIGHTS,BUILDING_LIGHT_SCH,1ST STOREY:102 ROOM,1.14,0.0,4.058,3.566,N/A,0.000,0.320,0.230,0.450,0.450,General,0.632,3.514
 Lights Internal Gains, 1ST STOREY:33 ROOM LIGHTS,BUILDING_LIGHT_SCH,1ST STOREY:33 ROOM,3.09,0.0,11.018,3.566,N/A,0.000,0.320,0.230,0.450,0.450,General,1.716,9.542
 Lights Internal Gains, 3RD STORY_A:379 ROOM LIGHTS,BUILDING_LIGHT_SCH,3RD STORY_A:379 ROOM,3.97,0.0,14.171,3.566,N/A,0.000,0.320,0.230,0.450,0.450,General,2.207,12.272
 Lights Internal Gains, 2ND STORY_A:368 ROOM LIGHTS,BUILDING_LIGHT_SCH,2ND STORY_A:368 ROOM,12.43,0.0,44.314,3.566,N/A,0.000,0.320,0.230,0.450,0.450,General,6.901,38.375
 Lights Internal Gains, 2ND STORY_A:369 ROOM LIGHTS,BUILDING_LIGHT_SCH,2ND STORY_A:369 ROOM,12.43,0.0,44.318,3.566,N/A,0.000,0.320,0.230,0.450,0.450,General,6.901,38.378
 Lights Internal Gains, 3RD STOREY:294 ROOM LIGHTS,BUILDING_LIGHT_SCH,3RD STOREY:294 ROOM,4.10,0.0,14.606,3.566,N/A,0.000,0.320,0.230,0.450,0.450,General,2.274,12.649
 Lights Internal Gains, 3RD STORY_A:412 ROOM LIGHTS,BUILDING_LIGHT_SCH,3RD STORY_A:412 ROOM,6.77,0.0,24.139,3.566,N/A,0.000,0.320,0.230,0.450,0.450,General,3.759,20.904
 Lights Internal Gains, LOWER 1ST STOREY:235 ROOM LIGHTS,BUILDING_LIGHT_SCH,LOWER 1ST STOREY:235 ROOM,3.54,0.0,12.635,3.566,N/A,0.000,0.320,0.230,0.450,0.450,General,1.967,10.941
 Lights Internal Gains, 3RD STOREY:285 ROOM LIGHTS,BUILDING_LIGHT_SCH,3RD STOREY:285 ROOM,14.57,0.0,51.940,3.566,N/A,0.000,0.320,0.230,0.450,0.450,General,8.088,44.979
 Lights Internal Gains, 2ND STOREY:173 ROOM LIGHTS,BUILDING_LIGHT_SCH,2ND STOREY:173 ROOM,90.02,0.0,321.021,3.566,N/A,0.000,0.320,0.230,0.450,0.450,General,49.990,277.999
 Lights Internal Gains, 3RD STOREY:302 ROOM LIGHTS,BUILDING_LIGHT_SCH,3RD STOREY:302 ROOM,192.57,0.0,686.692,3.566,N/A,0.000,0.320,0.230,0.450,0.450,General,106.933,594.664
 Lights Internal Gains, 2ND STOREY:203 ROOM LIGHTS,BUILDING_LIGHT_SCH,2ND STOREY:203 ROOM,28.36,0.0,101.128,3.566,N/A,0.000,0.320,0.230,0.450,0.450,General,15.748,87.575
 Lights Internal Gains, 3RD STOREY:301 ROOM LIGHTS,BUILDING_LIGHT_SCH,3RD STOREY:301 ROOM,14.94,0.0,53.260,3.566,N/A,0.000,0.320,0.230,0.450,0.450,General,8.294,46.122
 Lights Internal Gains, 2ND STORY_A:375 ROOM LIGHTS,BUILDING_LIGHT_SCH,2ND STORY_A:375 ROOM,6.97,0.0,24.840,3.566,N/A,0.000,0.320,0.230,0.450,0.450,General,3.868,21.511
 Lights Internal Gains, 1ST STOREY:421 ROOM LIGHTS,BUILDING_LIGHT_SCH,1ST STOREY:421 ROOM,16.59,0.0,59.177,3.566,N/A,0.000,0.320,0.230,0.450,0.450,General,9.215,51.246
 Lights Internal Gains, LOWER 1ST STOREY:128 ROOM LIGHTS,BUILDING_LIGHT_SCH,LOWER 1ST STOREY:128 ROOM,21.65,0.0,77.209,3.566,N/A,0.000,0.320,0.230,0.450,0.450,General,12.023,66.862
 Lights Internal Gains, 2ND STORY_A:364 ROOM LIGHTS,BUILDING_LIGHT_SCH,2ND STORY_A:364 ROOM,17.18,0.0,61.275,3.566,N/A,0.000,0.320,0.230,0.450,0.450,General,9.542,53.063
 Lights Internal Gains, 1ST STOREY:237 ROOM LIGHTS,BUILDING_LIGHT_SCH,1ST STOREY:237 ROOM,3.39,0.0,12.095,3.566,N/A,0.000,0.320,0.230,0.450,0.450,General,1.883,10.474
! <ElectricEquipment Internal Gains - Nominal>,Name,Schedule Name,Zone Name,Zone Floor Area {m2},# Zone Occupants,Equipment Level {W},Equipment/Floor Area {W/m2},Equipment per person {W/person},Fraction Latent,Fraction Radiant,Fraction Lost,Fraction Convected,End-Use SubCategory,Nominal Minimum Equipment Level {W},Nominal Maximum Equipment Level {W}
 ElectricEquipment Internal Gains, 2ND STORY_A:384 ROOM ELECTRICEQUIPMENT,BUILDING_EQUIPMENT_SCH,2ND STORY_A:384 ROOM,8.00,0.0,43.125,5.390,N/A,0.000,0.300,0.200,0.500,General,11.301,34.744
 ElectricEquipment Internal Gains, 2ND STORY_A:359 ROOM ELECTRICEQUIPMENT,BUILDING_EQUIPMENT_SCH,2ND STORY_A:359 ROOM,61.93,0.0,333.818,5.390,N/A,0.000,0.300,0.200,0.500,General,87.475,268.938
 ElectricEquipment Internal Gains, 3RD STOREY:415 ROOM ELECTRICEQUIPMENT,BUILDING_EQUIPMENT_SCH,3RD STOREY:415 ROOM,204.45,0.0,1101.995,5.390,N/A,0.000,0.300,0.200,0.500,General,288.772,887.815
 ElectricEquipment Internal Gains, 3RD STORY_A:419 ROOM ELECTRICEQUIPMENT,BUILDING_EQUIPMENT_SCH,3RD STORY_A:419 ROOM,10.29,0.0,55.451,5.390,N/A,0.000,0.300,0.200,0.500,General,14.531,44.674
 ElectricEquipment Internal Gains, 2ND STOREY:197 ROOM ELECTRICEQUIPMENT,BUILDING_EQUIPMENT_SCH,2ND STOREY:197 ROOM,149.97,0.0,808.330,5.390,N/A,0.000,0.300,0.200,0.500,General,211.819,651.226
 ElectricEquipment Internal Gains, 2ND STOREY:206 ROOM ELECTRICEQUIPMENT,BUILDING_EQUIPMENT_SCH,2ND STOREY:206 ROOM,2.68,0.0,14.420,5.390,N/A,0.000,0.300,0.200,0.500,General,3.779,11.617
 ElectricEquipment Internal Gains, LOWER 1ST STOREY:354 ROOM ELECTRICEQUIPMENT,BUILDING_EQUIPMENT_SCH,LOWER 1ST STOREY:354 ROOM,29.43,0.0,158.645,5.390,N/A,0.000,0.300,0.200,0.500,General,41.572,127.811
 ElectricEquipment Internal Gains, LOWER 1ST STOREY:127 ROOM ELECTRICEQUIPMENT,BUILDING_EQUIPMENT_SCH,LOWER 1ST STOREY:127 ROOM,34.60,0.0,186.491,5.390,N/A,0.000,0.300,0.200,0.500,General,48.869,150.245
 ElectricEquipment Internal Gains, 2ND STORY_A:371 ROOM ELECTRICEQUIPMENT,BUILDING_EQUIPMENT_SCH,2ND STORY_A:371 ROOM,166.29,0.0,896.314,5.390,N/A,0.000,0.300,0.200,0.500,General,234.875,722.110
 ElectricEquipment Internal Gains, 1ST STOREY:126 ROOM ELECTRICEQUIPMENT,BUILDING_EQUIPMENT_SCH,1ST STOREY:126 ROOM,1.48,0.0,7.971,5.390,N/A,0.000,0.300,0.200,0.500,General,2.089,6.422
 ElectricEquipment Internal Gains, 3RD STOREY:318 ROOM ELECTRICEQUIPMENT,BUILDING_EQUIPMENT_SCH,3RD STOREY:318 ROOM,9.66,0.0,52.074,5.390,N/A,0.000,0.300,0.200,0.500,General,13.646,41.953
 ElectricEquipment Internal Gains, 1ST STOREY:420 ROOM ELECTRICEQUIPMENT,BUILDING_EQUIPMENT_SCH,1ST STOREY:420 ROOM,10.74,0.0,57.863,5.390,N/A,0.000,0.300,0.200,0.500,General,15.163,46.617
 ElectricEquipment Internal Gains, 2ND STOREY:194 ROOM ELECTRICEQUIPMENT,BUILDING_EQUIPMENT_SCH,2ND STOREY:194 ROOM,12.21,0.0,65.797,5.390,N/A,0.000,0.300,0.200,0.500,General,17.242,53.009
 ElectricEquipment Internal Gains, 2ND STORY_A:367 ROOM ELECTRICEQUIPMENT,BUILDING_EQUIPMENT_SCH,2ND STORY_A:367 ROOM,30.50,0.0,164.409,5.390,N/A,0.000,0.300,0.200,0.500,General,43.083,132.455
 ElectricEquipment Internal Gains, 3RD STOREY:291 ROOM ELECTRICEQUIPMENT,BUILDING_EQUIPMENT_SCH,3RD STOREY:291 ROOM,4.25,0.0,22.893,5.390,N/A,0.000,0.300,0.200,0.500,General,5.999,18.444
 ElectricEquipment Internal Gains, 3RD STOREY:320 ROOM ELECTRICEQUIPMENT,BUILDING_EQUIPMENT_SCH,3RD STOREY:320 ROOM,16.70,0.0,89.992,5.390,N/A,0.000,0.300,0.200,0.500,General,23.582,72.502
 ElectricEquipment Internal Gains, LOWER 1ST STOREY:143 ROOM ELECTRICEQUIPMENT,BUILDING_EQUIPMENT_SCH,LOWER 1ST STOREY:143 ROOM,25.31,0.0,136.435,5.390,N/A,0.000,0.300,0.200,0.500,General,35.752,109.918
[...]
 Warmup Convergence Information,3RD STOREY:318 ROOM,RunPeriod: SINGAPORE-CHANGI-AP - SGP Custom-486980 WMO#=486980,1.4367166924E-002,1.4759749065E-002,Pass,Pass,0.0000000000,0.0000000000,Pass,Pass
 Warmup Convergence Information,1ST STOREY:420 ROOM,RunPeriod: SINGAPORE-CHANGI-AP - SGP Custom-486980 WMO#=486980,8.9701948676E-002,0.1127998387,Pass,Pass,0.0000000000,0.0000000000,Pass,Pass
 Warmup Convergence Information,2ND STOREY:194 ROOM,RunPeriod: SINGAPORE-CHANGI-AP - SGP Custom-486980 WMO#=486980,7.0110990183E-003,7.5628178200E-003,Pass,Pass,0.0000000000,0.0000000000,Pass,Pass
 Warmup Convergence Information,2ND STORY_A:367 ROOM,RunPeriod: SINGAPORE-CHANGI-AP - SGP Custom-486980 WMO#=486980,1.4203504501E-002,1.4347967310E-002,Pass,Pass,0.0000000000,0.0000000000,Pass,Pass
 Warmup Convergence Information,3RD STOREY:291 ROOM,RunPeriod: SINGAPORE-CHANGI-AP - SGP Custom-486980 WMO#=486980,3.7126113046E-003,3.1060540191E-003,Pass,Pass,0.0000000000,0.0000000000,Pass,Pass
 Warmup Convergence Information,3RD STOREY:320 ROOM,RunPeriod: SINGAPORE-CHANGI-AP - SGP Custom-486980 WMO#=486980,1.2380109039E-002,1.1953015578E-002,Pass,Pass,0.0000000000,0.0000000000,Pass,Pass
 Warmup Convergence Information,LOWER 1ST STOREY:143 ROOM,RunPeriod: SINGAPORE-CHANGI-AP - SGP Custom-486980 WMO#=486980,7.8489690901E-003,6.5866602008E-003,Pass,Pass,0.0000000000,0.0000000000,Pass,Pass
 Warmup Convergence Information,2ND STOREY:392 ROOM,RunPeriod: SINGAPORE-CHANGI-AP - SGP Custom-486980 WMO#=486980,3.4790029105E-002,3.2201007978E-002,Pass,Pass,0.0000000000,0.0000000000,Pass,Pass
 Warmup Convergence Information,2ND STOREY:249 ROOM,RunPeriod: SINGAPORE-CHANGI-AP - SGP Custom-486980 WMO#=486980,3.3804358621E-003,3.7509980648E-003,Pass,Pass,0.0000000000,0.0000000000,Pass,Pass
 Warmup Convergence Information,3RD STOREY:308 ROOM,RunPeriod: SINGAPORE-CHANGI-AP - SGP Custom-486980 WMO#=486980,1.9040115431E-003,2.1970452488E-003,Pass,Pass,0.0000000000,0.0000000000,Pass,Pass
 Warmup Convergence Information,1ST STOREY:236 ROOM,RunPeriod: SINGAPORE-CHANGI-AP - SGP Custom-486980 WMO#=486980,5.9749135609E-003,7.1051420166E-003,Pass,Pass,0.0000000000,0.0000000000,Pass,Pass
 Warmup Convergence Information,1ST STOREY:123 ROOM,RunPeriod: SINGAPORE-CHANGI-AP - SGP Custom-486980 WMO#=486980,1.4262440037E-002,1.6388214382E-002,Pass,Pass,0.0000000000,0.0000000000,Pass,Pass
 Warmup Convergence Information,1ST STOREY:44 ROOM,RunPeriod: SINGAPORE-CHANGI-AP - SGP Custom-486980 WMO#=486980,1.7971134978E-002,1.5621079452E-002,Pass,Pass,0.0000000000,0.0000000000,Pass,Pass
 Warmup Convergence Information,3RD STOREY:310 ROOM,RunPeriod: SINGAPORE-CHANGI-AP - SGP Custom-486980 WMO#=486980,1.3437413401E-002,1.4265075608E-002,Pass,Pass,0.0000000000,0.0000000000,Pass,Pass
 Warmup Convergence Information,1ST STOREY:99 ROOM,RunPeriod: SINGAPORE-CHANGI-AP - SGP Custom-486980 WMO#=486980,6.7832474878E-003,6.7439337746E-003,Pass,Pass,0.0000000000,0.0000000000,Pass,Pass
 Warmup Convergence Information,3RD STORY_A:380 ROOM,RunPeriod: SINGAPORE-CHANGI-AP - SGP Custom-486980 WMO#=486980,2.8653185911E-002,2.8099964484E-002,Pass,Pass,0.0000000000,0.0000000000,Pass,Pass
 Warmup Convergence Information,LOWER 1ST STOREY:129 ROOM,RunPeriod: SINGAPORE-CHANGI-AP - SGP Custom-486980 WMO#=486980,4.6201941448E-003,5.1474835403E-003,Pass,Pass,0.0000000000,0.0000000000,Pass,Pass
 Warmup Convergence Information,LOWER 1ST STOREY:134 ROOM,RunPeriod: SINGAPORE-CHANGI-AP - SGP Custom-486980 WMO#=486980,7.3721546149E-003,6.1520702061E-003,Pass,Pass,0.0000000000,0.0000000000,Pass,Pass
 Warmup Convergence Information,2ND STOREY:223 ROOM,RunPeriod: SINGAPORE-CHANGI-AP - SGP Custom-486980 WMO#=486980,1.5132233184E-002,1.6999171190E-002,Pass,Pass,0.0000000000,0.0000000000,Pass,Pass
 Warmup Convergence Information,3RD STOREY:309 ROOM,RunPeriod: SINGAPORE-CHANGI-AP - SGP Custom-486980 WMO#=486980,1.9367997543E-002,2.2807906145E-002,Pass,Pass,0.0000000000,0.0000000000,Pass,Pass
 Warmup Convergence Information,2ND STOREY:169 ROOM,RunPeriod: SINGAPORE-CHANGI-AP - SGP Custom-486980 WMO#=486980,1.0242108521E-002,1.0193516905E-002,Pass,Pass,0.0000000000,0.0000000000,Pass,Pass
 Warmup Convergence Information,3RD STOREY:305 ROOM,RunPeriod: SINGAPORE-CHANGI-AP - SGP Custom-486980 WMO#=486980,6.1049489567E-003,6.8194958613E-003,Pass,Pass,0.0000000000,0.0000000000,Pass,Pass
 Warmup Convergence Information,2ND STOREY:234 ROOM,RunPeriod: SINGAPORE-CHANGI-AP - SGP Custom-486980 WMO#=486980,2.8471888847E-002,2.3969490881E-002,Pass,Pass,0.0000000000,0.0000000000,Pass,Pass
 Warmup Convergence Information,2ND STOREY:240 ROOM,RunPeriod: SINGAPORE-CHANGI-AP - SGP Custom-486980 WMO#=486980,6.5262554668E-003,7.5663971725E-003,Pass,Pass,0.0000000000,0.0000000000,Pass,Pass
 Warmup Convergence Information,2ND STOREY:252 ROOM,RunPeriod: SINGAPORE-CHANGI-AP - SGP Custom-486980 WMO#=486980,3.8734349160E-003,4.9308977958E-003,Pass,Pass,0.0000000000,0.0000000000,Pass,Pass
 Warmup Convergence Information,1ST STOREY:103 ROOM,RunPeriod: SINGAPORE-CHANGI-AP - SGP Custom-486980 WMO#=486980,5.1667267073E-003,5.0750652793E-003,Pass,Pass,0.0000000000,0.0000000000,Pass,Pass
 Warmup Convergence Information,LOWER 1ST STOREY:142 ROOM,RunPeriod: SINGAPORE-CHANGI-AP - SGP Custom-486980 WMO#=486980,3.1294343124E-002,2.9567841485E-002,Pass,Pass,0.0000000000,0.0000000000,Pass,Pass
 Warmup Convergence Information,LOWER 1ST STOREY:135 ROOM,RunPeriod: SINGAPORE-CHANGI-AP - SGP Custom-486980 WMO#=486980,1.6655305858E-002,1.7261864887E-002,Pass,Pass,0.0000000000,0.0000000000,Pass,Pass
 Warmup Convergence Information,1ST STOREY:34 ROOM,RunPeriod: SINGAPORE-CHANGI-AP - SGP Custom-486980 WMO#=486980,4.7581944230E-002,5.2633763624E-002,Pass,Pass,0.0000000000,0.0000000000,Pass,Pass
 Warmup Convergence Information,3RD STOREY:410 ROOM,RunPeriod: SINGAPORE-CHANGI-AP - SGP Custom-486980 WMO#=486980,4.5136686987E-002,4.1010289003E-002,Pass,Pass,0.0000000000,0.0000000000,Pass,Pass
 Warmup Convergence Information,3RD STOREY:319 ROOM,RunPeriod: SINGAPORE-CHANGI-AP - SGP Custom-486980 WMO#=486980,4.0685224282E-003,4.8055055165E-003,Pass,Pass,0.0000000000,0.0000000000,Pass,Pass
 Warmup Convergence Information,3RD STOREY:347 ROOM,RunPeriod: SINGAPORE-CHANGI-AP - SGP Custom-486980 WMO#=486980,1.3141872856E-002,1.1424681813E-002,Pass,Pass,0.0000000000,0.0000000000,Pass,Pass
 Warmup Convergence Information,3RD STOREY:414 ROOM,RunPeriod: SINGAPORE-CHANGI-AP - SGP Custom-486980 WMO#=486980,4.3458018050E-002,4.4066393199E-002,Pass,Pass,0.0000000000,0.0000000000,Pass,Pass
 Warmup Convergence Information,2ND STOREY:417 ROOM,RunPeriod: SINGAPORE-CHANGI-AP - SGP Custom-486980 WMO#=486980,1.3242674749E-002,1.2128789085E-002,Pass,Pass,0.0000000000,0.0000000000,Pass,Pass
 Warmup Convergence Information,2ND STORY_A:370 ROOM,RunPeriod: SINGAPORE-CHANGI-AP - SGP Custom-486980 WMO#=486980,3.2428285109E-003,3.5940949945E-003,Pass,Pass,0.0000000000,0.0000000000,Pass,Pass
 Warmup Convergence Information,3RD STOREY:298 ROOM,RunPeriod: SINGAPORE-CHANGI-AP - SGP Custom-486980 WMO#=486980,9.4827851241E-003,9.0917557362E-003,Pass,Pass,0.0000000000,0.0000000000,Pass,Pass
 Warmup Convergence Information,2ND STORY_A:376 ROOM,RunPeriod: SINGAPORE-CHANGI-AP - SGP Custom-486980 WMO#=486980,1.9001623147E-002,1.8124596591E-002,Pass,Pass,0.0000000000,0.0000000000,Pass,Pass
 Warmup Convergence Information,3RD STORY_A:381 ROOM,RunPeriod: SINGAPORE-CHANGI-AP - SGP Custom-486980 WMO#=486980,3.9671736633E-003,3.0122288612E-003,Pass,Pass,0.0000000000,0.0000000000,Pass,Pass
 Warmup Convergence Information,2ND STORY_A:365 ROOM,RunPeriod: SINGAPORE-CHANGI-AP - SGP Custom-486980 WMO#=486980,5.8935697682E-003,6.9481226259E-003,Pass,Pass,0.0000000000,0.0000000000,Pass,Pass
 Warmup Convergence Information,2ND STOREY:408 ROOM,RunPeriod: SINGAPORE-CHANGI-AP - SGP Custom-486980 WMO#=486980,3.7733228286E-002,3.6121683787E-002,Pass,Pass,0.0000000000,0.0000000000,Pass,Pass
 Warmup Convergence Information,2ND STOREY:342 ROOM,RunPeriod: SINGAPORE-CHANGI-AP - SGP Custom-486980 WMO#=486980,2.7741470828E-002,2.7383765630E-002,Pass,Pass,0.0000000000,0.0000000000,Pass,Pass
 Warmup Convergence Information,2ND STOREY:168 ROOM,RunPeriod: SINGAPORE-CHANGI-AP - SGP Custom-486980 WMO#=486980,1.5115295779E-002,1.5425183501E-002,Pass,Pass,0.0000000000,0.0000000000,Pass,Pass
 Warmup Convergence Information,2ND STOREY:176 ROOM,RunPeriod: SINGAPORE-CHANGI-AP - SGP Custom-486980 WMO#=486980,3.7854839840E-003,3.1784078880E-003,Pass,Pass,0.0000000000,0.0000000000,Pass,Pass
 Warmup Convergence Information,2ND STOREY:209 ROOM,RunPeriod: SINGAPORE-CHANGI-AP - SGP Custom-486980 WMO#=486980,4.2068896272E-003,3.1123477187E-003,Pass,Pass,0.0000000000,0.0000000000,Pass,Pass
 Warmup Convergence Information,2ND STOREY:242 ROOM,RunPeriod: SINGAPORE-CHANGI-AP - SGP Custom-486980 WMO#=486980,3.5578746492E-003,4.6734679092E-003,Pass,Pass,0.0000000000,0.0000000000,Pass,Pass
 Warmup Convergence Information,3RD STOREY:300 ROOM,RunPeriod: SINGAPORE-CHANGI-AP - SGP Custom-486980 WMO#=486980,1.2418669121E-002,1.1816844483E-002,Pass,Pass,0.0000000000,0.0000000000,Pass,Pass
 Warmup Convergence Information,1ST STOREY:122 ROOM,RunPeriod: SINGAPORE-CHANGI-AP - SGP Custom-486980 WMO#=486980,1.8511060091E-002,1.5988748146E-002,Pass,Pass,0.0000000000,0.0000000000,Pass,Pass
 Warmup Convergence Information,3RD STORY_A:382 ROOM,RunPeriod: SINGAPORE-CHANGI-AP - SGP Custom-486980 WMO#=486980,1.8756788488E-002,1.6820748972E-002,Pass,Pass,0.0000000000,0.0000000000,Pass,Pass
 Warmup Convergence Information,2ND STORY_A:385 ROOM,RunPeriod: SINGAPORE-CHANGI-AP - SGP Custom-486980 WMO#=486980,1.7925251252E-002,2.1423578005E-002,Pass,Pass,0.0000000000,0.0000000000,Pass,Pass
 Warmup Convergence Information,1ST STOREY:113 ROOM,RunPeriod: SINGAPORE-CHANGI-AP - SGP Custom-486980 WMO#=486980,1.4512883616E-002,1.5841513013E-002,Pass,Pass,0.0000000000,0.0000000000,Pass,Pass
 Warmup Convergence Information,1ST STOREY:125 ROOM,RunPeriod: SINGAPORE-CHANGI-AP - SGP Custom-486980 WMO#=486980,7.5169781427E-003,5.5946382146E-003,Pass,Pass,0.0000000000,0.0000000000,Pass,Pass
 Warmup Convergence Information,3RD STOREY:411 ROOM,RunPeriod: SINGAPORE-CHANGI-AP - SGP Custom-486980 WMO#=486980,2.7040335826E-002,2.2032329664E-002,Pass,Pass,0.0000000000,0.0000000000,Pass,Pass
 Warmup Convergence Information,3RD STOREY:293 ROOM,RunPeriod: SINGAPORE-CHANGI-AP - SGP Custom-486980 WMO#=486980,3.6320959937E-003,4.4023105430E-003,Pass,Pass,0.0000000000,0.0000000000,Pass,Pass
 Warmup Convergence Information,3RD STORY_A:387 ROOM,RunPeriod: SINGAPORE-CHANGI-AP - SGP Custom-486980 WMO#=486980,3.2992088815E-003,3.6998099108E-003,Pass,Pass,0.0000000000,0.0000000000,Pass,Pass
 Warmup Convergence Information,3RD STOREY:284 ROOM,RunPeriod: SINGAPORE-CHANGI-AP - SGP Custom-486980 WMO#=486980,5.2868459111E-003,5.6124764028E-003,Pass,Pass,0.0000000000,0.0000000000,Pass,Pass
 Warmup Convergence Information,3RD STOREY:316 ROOM,RunPeriod: SINGAPORE-CHANGI-AP - SGP Custom-486980 WMO#=486980,3.7283540641E-003,3.0564063942E-003,Pass,Pass,0.0000000000,0.0000000000,Pass,Pass
 Warmup Convergence Information,2ND STOREY:181 ROOM,RunPeriod: SINGAPORE-CHANGI-AP - SGP Custom-486980 WMO#=486980,2.1268109957E-003,2.2050766812E-003,Pass,Pass,0.0000000000,0.0000000000,Pass,Pass
 Warmup Convergence Information,LOWER 1ST STOREY:144 ROOM,RunPeriod: SINGAPORE-CHANGI-AP - SGP Custom-486980 WMO#=486980,7.6641136666E-003,6.4518510705E-003,Pass,Pass,0.0000000000,0.0000000000,Pass,Pass
 Warmup Convergence Information,1ST STOREY:348 ROOM,RunPeriod: SINGAPORE-CHANGI-AP - SGP Custom-486980 WMO#=486980,1.8419827825E-002,1.6101159500E-002,Pass,Pass,0.0000000000,0.0000000000,Pass,Pass
 Warmup Convergence Information,3RD STORY_A:378 ROOM,RunPeriod: SINGAPORE-CHANGI-AP - SGP Custom-486980 WMO#=486980,1.5294348851E-002,1.5517268610E-002,Pass,Pass,0.0000000000,0.0000000000,Pass,Pass
 Warmup Convergence Information,2ND STOREY:245 ROOM,RunPeriod: SINGAPORE-CHANGI-AP - SGP Custom-486980 WMO#=486980,1.0562213507E-002,9.8474093090E-003,Pass,Pass,0.0000000000,0.0000000000,Pass,Pass
 Warmup Convergence Information,2ND STOREY:251 ROOM,RunPeriod: SINGAPORE-CHANGI-AP - SGP Custom-486980 WMO#=486980,1.3394334127E-002,1.2276805761E-002,Pass,Pass,0.0000000000,0.0000000000,Pass,Pass
 Warmup Convergence Information,3RD STOREY:283 ROOM,RunPeriod: SINGAPORE-CHANGI-AP - SGP Custom-486980 WMO#=486980,1.1706666786E-002,1.1461432950E-002,Pass,Pass,0.0000000000,0.0000000000,Pass,Pass
 Warmup Convergence Information,3RD STOREY:405 ROOM,RunPeriod: SINGAPORE-CHANGI-AP - SGP Custom-486980 WMO#=486980,5.7342231143E-002,5.7885356281E-002,Pass,Pass,0.0000000000,0.0000000000,Pass,Pass
 Warmup Convergence Information,3RD STORY_A:377 ROOM,RunPeriod: SINGAPORE-CHANGI-AP - SGP Custom-486980 WMO#=486980,1.5375626608E-002,1.6665794847E-002,Pass,Pass,0.0000000000,0.0000000000,Pass,Pass
 Warmup Convergence Information,2ND STOREY:241 ROOM,RunPeriod: SINGAPORE-CHANGI-AP - SGP Custom-486980 WMO#=486980,5.7912945269E-003,6.7745985980E-003,Pass,Pass,0.0000000000,0.0000000000,Pass,Pass
 Warmup Convergence Information,2ND STOREY:167 ROOM,RunPeriod: SINGAPORE-CHANGI-AP - SGP Custom-486980 WMO#=486980,1.2407663410E-002,1.3463295020E-002,Pass,Pass,0.0000000000,0.0000000000,Pass,Pass
 Warmup Convergence Information,2ND STOREY:211 ROOM,RunPeriod: SINGAPORE-CHANGI-AP - SGP Custom-486980 WMO#=486980,3.2342879316E-003,3.5841164770E-003,Pass,Pass,0.0000000000,0.0000000000,Pass,Pass
 Warmup Convergence Information,2ND STOREY:253 ROOM,RunPeriod: SINGAPORE-CHANGI-AP - SGP Custom-486980 WMO#=486980,1.4265515763E-002,1.4053720129E-002,Pass,Pass,0.0000000000,0.0000000000,Pass,Pass
 Warmup Convergence Information,1ST STOREY:40 ROOM,RunPeriod: SINGAPORE-CHANGI-AP - SGP Custom-486980 WMO#=486980,1.4703783346E-002,1.6856769877E-002,Pass,Pass,0.0000000000,0.0000000000,Pass,Pass
 Warmup Convergence Information,3RD STOREY:288 ROOM,RunPeriod: SINGAPORE-CHANGI-AP - SGP Custom-486980 WMO#=486980,1.5407792590E-002,1.5641705552E-002,Pass,Pass,0.0000000000,0.0000000000,Pass,Pass
 Warmup Convergence Information,2ND STOREY:195 ROOM,RunPeriod: SINGAPORE-CHANGI-AP - SGP Custom-486980 WMO#=486980,1.2458092818E-002,1.2182172788E-002,Pass,Pass,0.0000000000,0.0000000000,Pass,Pass
 Warmup Convergence Information,LOWER 1ST STOREY:130 ROOM,RunPeriod: SINGAPORE-CHANGI-AP - SGP Custom-486980 WMO#=486980,4.5516777039E-003,4.6706516088E-003,Pass,Pass,0.0000000000,0.0000000000,Pass,Pass
 Warmup Convergence Information,1ST STOREY:98 ROOM,RunPeriod: SINGAPORE-CHANGI-AP - SGP Custom-486980 WMO#=486980,4.4821646207E-003,5.0305536706E-003,Pass,Pass,0.0000000000,0.0000000000,Pass,Pass
 Warmup Convergence Information,1ST STOREY:100 ROOM,RunPeriod: SINGAPORE-CHANGI-AP - SGP Custom-486980 WMO#=486980,8.8816227817E-003,7.6667512867E-003,Pass,Pass,0.0000000000,0.0000000000,Pass,Pass
 Warmup Convergence Information,2ND STORY_A:366 ROOM,RunPeriod: SINGAPORE-CHANGI-AP - SGP Custom-486980 WMO#=486980,1.1895624096E-002,1.1993002449E-002,Pass,Pass,0.0000000000,0.0000000000,Pass,Pass
 Warmup Convergence Information,2ND STOREY:224 ROOM,RunPeriod: SINGAPORE-CHANGI-AP - SGP Custom-486980 WMO#=486980,1.5690647372E-002,1.7148205014E-002,Pass,Pass,0.0000000000,0.0000000000,Pass,Pass
 Warmup Convergence Information,3RD STOREY:426 ROOM,RunPeriod: SINGAPORE-CHANGI-AP - SGP Custom-486980 WMO#=486980,5.5389977307E-003,5.7893640644E-003,Pass,Pass,0.0000000000,0.0000000000,Pass,Pass
 Warmup Convergence Information,LOWER 1ST STOREY:356 ROOM,RunPeriod: SINGAPORE-CHANGI-AP - SGP Custom-486980 WMO#=486980,2.7556349630E-002,2.3071448280E-002,Pass,Pass,0.0000000000,0.0000000000,Pass,Pass
 Warmup Convergence Information,2ND STOREY:225 ROOM,RunPeriod: SINGAPORE-CHANGI-AP - SGP Custom-486980 WMO#=486980,2.2525682547E-002,2.5762451274E-002,Pass,Pass,0.0000000000,0.0000000000,Pass,Pass
 Warmup Convergence Information,LOWER 1ST STOREY:139 ROOM,RunPeriod: SINGAPORE-CHANGI-AP - SGP Custom-486980 WMO#=486980,1.9616150622E-002,2.0896697498E-002,Pass,Pass,0.0000000000,0.0000000000,Pass,Pass
 Warmup Convergence Information,1ST STOREY:102 ROOM,RunPeriod: SINGAPORE-CHANGI-AP - SGP Custom-486980 WMO#=486980,2.1332526345E-002,2.3299240688E-002,Pass,Pass,0.0000000000,0.0000000000,Pass,Pass
 Warmup Convergence Information,1ST STOREY:33 ROOM,RunPeriod: SINGAPORE-CHANGI-AP - SGP Custom-486980 WMO#=486980,9.9242080426E-003,7.5736158263E-003,Pass,Pass,0.0000000000,0.0000000000,Pass,Pass
 Warmup Convergence Information,3RD STORY_A:379 ROOM,RunPeriod: SINGAPORE-CHANGI-AP - SGP Custom-486980 WMO#=486980,6.4952789186E-003,7.0933551787E-003,Pass,Pass,0.0000000000,0.0000000000,Pass,Pass
 Warmup Convergence Information,2ND STORY_A:368 ROOM,RunPeriod: SINGAPORE-CHANGI-AP - SGP Custom-486980 WMO#=486980,5.5092394871E-003,4.3919273415E-003,Pass,Pass,0.0000000000,0.0000000000,Pass,Pass
 Warmup Convergence Information,2ND STORY_A:369 ROOM,RunPeriod: SINGAPORE-CHANGI-AP - SGP Custom-486980 WMO#=486980,5.4253992706E-003,4.3421549917E-003,Pass,Pass,0.0000000000,0.0000000000,Pass,Pass
 Warmup Convergence Information,3RD STOREY:294 ROOM,RunPeriod: SINGAPORE-CHANGI-AP - SGP Custom-486980 WMO#=486980,3.6464399524E-003,3.0678317620E-003,Pass,Pass,0.0000000000,0.0000000000,Pass,Pass
 Warmup Convergence Information,3RD STORY_A:412 ROOM,RunPeriod: SINGAPORE-CHANGI-AP - SGP Custom-486980 WMO#=486980,3.4760804331E-002,3.1239238908E-002,Pass,Pass,0.0000000000,0.0000000000,Pass,Pass
 Warmup Convergence Information,LOWER 1ST STOREY:235 ROOM,RunPeriod: SINGAPORE-CHANGI-AP - SGP Custom-486980 WMO#=486980,2.0608811174E-003,2.3904060111E-003,Pass,Pass,0.0000000000,0.0000000000,Pass,Pass
 Warmup Convergence Information,3RD STOREY:285 ROOM,RunPeriod: SINGAPORE-CHANGI-AP - SGP Custom-486980 WMO#=486980,7.9647052228E-003,7.5513610384E-003,Pass,Pass,0.0000000000,0.0000000000,Pass,Pass
 Warmup Convergence Information,2ND STOREY:173 ROOM,RunPeriod: SINGAPORE-CHANGI-AP - SGP Custom-486980 WMO#=486980,5.3609184980E-002,5.9668372539E-002,Pass,Pass,0.0000000000,0.0000000000,Pass,Pass
 Warmup Convergence Information,3RD STOREY:302 ROOM,RunPeriod: SINGAPORE-CHANGI-AP - SGP Custom-486980 WMO#=486980,3.2587322250E-002,3.3696114586E-002,Pass,Pass,0.0000000000,0.0000000000,Pass,Pass
 Warmup Convergence Information,2ND STOREY:203 ROOM,RunPeriod: SINGAPORE-CHANGI-AP - SGP Custom-486980 WMO#=486980,2.4385338157E-002,1.9675026204E-002,Pass,Pass,0.0000000000,0.0000000000,Pass,Pass
 Warmup Convergence Information,3RD STOREY:301 ROOM,RunPeriod: SINGAPORE-CHANGI-AP - SGP Custom-486980 WMO#=486980,6.1712477826E-003,6.8886558389E-003,Pass,Pass,0.0000000000,0.0000000000,Pass,Pass
 Warmup Convergence Information,2ND STORY_A:375 ROOM,RunPeriod: SINGAPORE-CHANGI-AP - SGP Custom-486980 WMO#=486980,7.7835376685E-003,6.2702543963E-003,Pass,Pass,0.0000000000,0.0000000000,Pass,Pass
 Warmup Convergence Information,1ST STOREY:421 ROOM,RunPeriod: SINGAPORE-CHANGI-AP - SGP Custom-486980 WMO#=486980,2.3329702204E-002,2.1341506486E-002,Pass,Pass,0.0000000000,0.0000000000,Pass,Pass
 Warmup Convergence Information,LOWER 1ST STOREY:128 ROOM,RunPeriod: SINGAPORE-CHANGI-AP - SGP Custom-486980 WMO#=486980,1.2919020811E-002,1.1250017431E-002,Pass,Pass,0.0000000000,0.0000000000,Pass,Pass
 Warmup Convergence Information,2ND STORY_A:364 ROOM,RunPeriod: SINGAPORE-CHANGI-AP - SGP Custom-486980 WMO#=486980,1.7639998326E-002,1.8287624921E-002,Pass,Pass,0.0000000000,0.0000000000,Pass,Pass
 Warmup Convergence Information,1ST STOREY:237 ROOM,RunPeriod: SINGAPORE-CHANGI-AP - SGP Custom-486980 WMO#=486980,5.9126498375E-003,7.0038075701E-003,Pass,Pass,0.0000000000,0.0000000000,Pass,Pass
! <Program Control Information:Threads/Parallel Sims>, Threading Supported,Maximum Number of Threads, Env Set Threads (OMP_NUM_THREADS), EP Env Set Threads (EP_OMP_NUM_THREADS), IDF Set Threads, Number of Threads Used (Interior Radiant Exchange), Number Nominal Surfaces, Number Parallel Sims
Program Control:Threads/Parallel Sims, No,1, N/A, N/A, N/A, N/A, N/A, N/A
End of Data
