Program Version,EnergyPlus, Version 8.6.0-198c6a3cff, YMD=2018.12.24 22:54
! This file shows details about the branches, nodes, and other
! elements of the flow connections.
! This file is intended for use in "debugging" potential problems
! that may also be detected by the program, but may be more easily
! identified by "eye".
! This file is also intended to support software which draws a
! schematic diagram of the HVAC system.
! ===============================================================
! #Nodes,<Number of Unique Nodes>
 #Nodes,527
! <Node>,<NodeNumber>,<Node Name>,<Node Fluid Type>,<# Times Node Referenced After Definition>
 Node,1,2ND STORY_A SUPPLY FAN OUTLET,Air,6
 Node,2,2ND STORY_A:384 ROOM ZONE EQUIP INLET,Air,2
 Node,3,2ND STORY_A:359 ROOM ZONE EQUIP INLET,Air,2
 Node,4,2ND STORY_A:371 ROOM ZONE EQUIP INLET,Air,2
 Node,5,2ND STORY_A:367 ROOM ZONE EQUIP INLET,Air,2
 Node,6,2ND STORY_A:370 ROOM ZONE EQUIP INLET,Air,2
 Node,7,2ND STORY_A:376 ROOM ZONE EQUIP INLET,Air,2
 Node,8,2ND STORY_A:365 ROOM ZONE EQUIP INLET,Air,2
 Node,9,2ND STORY_A:385 ROOM ZONE EQUIP INLET,Air,2
 Node,10,2ND STORY_A:366 ROOM ZONE EQUIP INLET,Air,2
 Node,11,2ND STORY_A:368 ROOM ZONE EQUIP INLET,Air,2
 Node,12,2ND STORY_A:369 ROOM ZONE EQUIP INLET,Air,2
 Node,13,2ND STORY_A:375 ROOM ZONE EQUIP INLET,Air,2
 Node,14,2ND STORY_A:364 ROOM ZONE EQUIP INLET,Air,2
 Node,15,3RD STOREY SUPPLY FAN OUTLET,Air,6
 Node,16,3RD STOREY:415 ROOM ZONE EQUIP INLET,Air,2
 Node,17,3RD STOREY:318 ROOM ZONE EQUIP INLET,Air,2
 Node,18,3RD STOREY:291 ROOM ZONE EQUIP INLET,Air,2
 Node,19,3RD STOREY:320 ROOM ZONE EQUIP INLET,Air,2
 Node,20,3RD STOREY:308 ROOM ZONE EQUIP INLET,Air,2
 Node,21,3RD STOREY:310 ROOM ZONE EQUIP INLET,Air,2
 Node,22,3RD STOREY:309 ROOM ZONE EQUIP INLET,Air,2
 Node,23,3RD STOREY:305 ROOM ZONE EQUIP INLET,Air,2
 Node,24,3RD STOREY:410 ROOM ZONE EQUIP INLET,Air,2
 Node,25,3RD STOREY:319 ROOM ZONE EQUIP INLET,Air,2
 Node,26,3RD STOREY:347 ROOM ZONE EQUIP INLET,Air,2
 Node,27,3RD STOREY:414 ROOM ZONE EQUIP INLET,Air,2
 Node,28,3RD STOREY:298 ROOM ZONE EQUIP INLET,Air,2
 Node,29,3RD STOREY:300 ROOM ZONE EQUIP INLET,Air,2
 Node,30,3RD STOREY:411 ROOM ZONE EQUIP INLET,Air,2
 Node,31,3RD STOREY:293 ROOM ZONE EQUIP INLET,Air,2
 Node,32,3RD STOREY:284 ROOM ZONE EQUIP INLET,Air,2
 Node,33,3RD STOREY:316 ROOM ZONE EQUIP INLET,Air,2
 Node,34,3RD STOREY:283 ROOM ZONE EQUIP INLET,Air,2
 Node,35,3RD STOREY:405 ROOM ZONE EQUIP INLET,Air,2
 Node,36,3RD STOREY:288 ROOM ZONE EQUIP INLET,Air,2
 Node,37,3RD STOREY:426 ROOM ZONE EQUIP INLET,Air,2
 Node,38,3RD STOREY:294 ROOM ZONE EQUIP INLET,Air,2
 Node,39,3RD STOREY:285 ROOM ZONE EQUIP INLET,Air,2
 Node,40,3RD STOREY:302 ROOM ZONE EQUIP INLET,Air,2
 Node,41,3RD STOREY:301 ROOM ZONE EQUIP INLET,Air,2
 Node,42,3RD STORY_A SUPPLY FAN OUTLET,Air,6
 Node,43,3RD STORY_A:419 ROOM ZONE EQUIP INLET,Air,2
 Node,44,3RD STORY_A:380 ROOM ZONE EQUIP INLET,Air,2
 Node,45,3RD STORY_A:381 ROOM ZONE EQUIP INLET,Air,2
 Node,46,3RD STORY_A:382 ROOM ZONE EQUIP INLET,Air,2
 Node,47,3RD STORY_A:387 ROOM ZONE EQUIP INLET,Air,2
 Node,48,3RD STORY_A:378 ROOM ZONE EQUIP INLET,Air,2
 Node,49,3RD STORY_A:377 ROOM ZONE EQUIP INLET,Air,2
 Node,50,3RD STORY_A:379 ROOM ZONE EQUIP INLET,Air,2
 Node,51,3RD STORY_A:412 ROOM ZONE EQUIP INLET,Air,2
 Node,52,2ND STOREY SUPPLY FAN OUTLET,Air,6
 Node,53,2ND STOREY:197 ROOM ZONE EQUIP INLET,Air,2
 Node,54,2ND STOREY:206 ROOM ZONE EQUIP INLET,Air,2
 Node,55,2ND STOREY:194 ROOM ZONE EQUIP INLET,Air,2
 Node,56,2ND STOREY:392 ROOM ZONE EQUIP INLET,Air,2
 Node,57,2ND STOREY:249 ROOM ZONE EQUIP INLET,Air,2
 Node,58,2ND STOREY:223 ROOM ZONE EQUIP INLET,Air,2
 Node,59,2ND STOREY:169 ROOM ZONE EQUIP INLET,Air,2
 Node,60,2ND STOREY:234 ROOM ZONE EQUIP INLET,Air,2
 Node,61,2ND STOREY:240 ROOM ZONE EQUIP INLET,Air,2
 Node,62,2ND STOREY:252 ROOM ZONE EQUIP INLET,Air,2
 Node,63,2ND STOREY:417 ROOM ZONE EQUIP INLET,Air,2
 Node,64,2ND STOREY:408 ROOM ZONE EQUIP INLET,Air,2
 Node,65,2ND STOREY:342 ROOM ZONE EQUIP INLET,Air,2
 Node,66,2ND STOREY:168 ROOM ZONE EQUIP INLET,Air,2
 Node,67,2ND STOREY:176 ROOM ZONE EQUIP INLET,Air,2
 Node,68,2ND STOREY:209 ROOM ZONE EQUIP INLET,Air,2
 Node,69,2ND STOREY:242 ROOM ZONE EQUIP INLET,Air,2
 Node,70,2ND STOREY:181 ROOM ZONE EQUIP INLET,Air,2
 Node,71,2ND STOREY:245 ROOM ZONE EQUIP INLET,Air,2
 Node,72,2ND STOREY:251 ROOM ZONE EQUIP INLET,Air,2
 Node,73,2ND STOREY:241 ROOM ZONE EQUIP INLET,Air,2
 Node,74,2ND STOREY:167 ROOM ZONE EQUIP INLET,Air,2
 Node,75,2ND STOREY:211 ROOM ZONE EQUIP INLET,Air,2
 Node,76,2ND STOREY:253 ROOM ZONE EQUIP INLET,Air,2
 Node,77,2ND STOREY:195 ROOM ZONE EQUIP INLET,Air,2
 Node,78,2ND STOREY:224 ROOM ZONE EQUIP INLET,Air,2
 Node,79,2ND STOREY:225 ROOM ZONE EQUIP INLET,Air,2
 Node,80,2ND STOREY:173 ROOM ZONE EQUIP INLET,Air,2
 Node,81,2ND STOREY:203 ROOM ZONE EQUIP INLET,Air,2
 Node,82,LOWER 1ST STOREY SUPPLY FAN OUTLET,Air,6
 Node,83,LOWER 1ST STOREY:354 ROOM ZONE EQUIP INLET,Air,2
 Node,84,LOWER 1ST STOREY:127 ROOM ZONE EQUIP INLET,Air,2
 Node,85,LOWER 1ST STOREY:143 ROOM ZONE EQUIP INLET,Air,2
 Node,86,LOWER 1ST STOREY:129 ROOM ZONE EQUIP INLET,Air,2
 Node,87,LOWER 1ST STOREY:134 ROOM ZONE EQUIP INLET,Air,2
 Node,88,LOWER 1ST STOREY:142 ROOM ZONE EQUIP INLET,Air,2
 Node,89,LOWER 1ST STOREY:135 ROOM ZONE EQUIP INLET,Air,2
 Node,90,LOWER 1ST STOREY:144 ROOM ZONE EQUIP INLET,Air,2
 Node,91,LOWER 1ST STOREY:130 ROOM ZONE EQUIP INLET,Air,2
 Node,92,LOWER 1ST STOREY:356 ROOM ZONE EQUIP INLET,Air,2
 Node,93,LOWER 1ST STOREY:139 ROOM ZONE EQUIP INLET,Air,2
 Node,94,LOWER 1ST STOREY:235 ROOM ZONE EQUIP INLET,Air,2
 Node,95,LOWER 1ST STOREY:128 ROOM ZONE EQUIP INLET,Air,2
 Node,96,1ST STOREY SUPPLY FAN OUTLET,Air,6
 Node,97,1ST STOREY:126 ROOM ZONE EQUIP INLET,Air,2
 Node,98,1ST STOREY:420 ROOM ZONE EQUIP INLET,Air,2
 Node,99,1ST STOREY:236 ROOM ZONE EQUIP INLET,Air,2
 Node,100,1ST STOREY:123 ROOM ZONE EQUIP INLET,Air,2
 Node,101,1ST STOREY:44 ROOM ZONE EQUIP INLET,Air,2
 Node,102,1ST STOREY:99 ROOM ZONE EQUIP INLET,Air,2
 Node,103,1ST STOREY:103 ROOM ZONE EQUIP INLET,Air,2
 Node,104,1ST STOREY:34 ROOM ZONE EQUIP INLET,Air,2
 Node,105,1ST STOREY:122 ROOM ZONE EQUIP INLET,Air,2
 Node,106,1ST STOREY:113 ROOM ZONE EQUIP INLET,Air,2
 Node,107,1ST STOREY:125 ROOM ZONE EQUIP INLET,Air,2
 Node,108,1ST STOREY:348 ROOM ZONE EQUIP INLET,Air,2
 Node,109,1ST STOREY:40 ROOM ZONE EQUIP INLET,Air,2
 Node,110,1ST STOREY:98 ROOM ZONE EQUIP INLET,Air,2
 Node,111,1ST STOREY:100 ROOM ZONE EQUIP INLET,Air,2
 Node,112,1ST STOREY:102 ROOM ZONE EQUIP INLET,Air,2
 Node,113,1ST STOREY:33 ROOM ZONE EQUIP INLET,Air,2
 Node,114,1ST STOREY:421 ROOM ZONE EQUIP INLET,Air,2
 Node,115,1ST STOREY:237 ROOM ZONE EQUIP INLET,Air,2
 Node,116,CHILLED WATER LOOP CHILLED WATER SUPPLY OUTLET,Water,5
 Node,117,CONDENSER WATER LOOP CONDENSER WATER SUPPLY OUTLET,Water,5
 Node,118,2ND STORY_A COOLING COIL OUTLET,Air,7
 Node,119,2ND STORY_A MIXED AIR OUTLET,Air,6
 Node,120,3RD STOREY COOLING COIL OUTLET,Air,7
 Node,121,3RD STOREY MIXED AIR OUTLET,Air,6
 Node,122,3RD STORY_A COOLING COIL OUTLET,Air,7
 Node,123,3RD STORY_A MIXED AIR OUTLET,Air,6
 Node,124,2ND STOREY COOLING COIL OUTLET,Air,7
 Node,125,2ND STOREY MIXED AIR OUTLET,Air,6
 Node,126,LOWER 1ST STOREY COOLING COIL OUTLET,Air,7
 Node,127,LOWER 1ST STOREY MIXED AIR OUTLET,Air,6
 Node,128,1ST STOREY COOLING COIL OUTLET,Air,7
 Node,129,1ST STOREY MIXED AIR OUTLET,Air,6
 Node,130,CHILLER% CHILLED WATER INLET,Water,1
 Node,131,CHILLER% CHILLED WATER OUTLET,Water,2
 Node,132,CHILLER% CONDENSER WATER INLET,Water,1
 Node,133,CHILLER% CONDENSER WATER OUTLET,Water,1
 Node,134,TOWER% CONDENSER WATER INLET,Water,1
 Node,135,TOWER% CONDENSER WATER OUTLET,Water,1
 Node,136,CHILLED WATER LOOP CHILLED WATER SUPPLY BYPASS INLET,Water,1
 Node,137,CHILLED WATER LOOP CHILLED WATER SUPPLY BYPASS OUTLET,Water,1
 Node,138,CHILLED WATER LOOP CHILLED WATER SUPPLY INLET,Water,2
 Node,139,CHILLED WATER LOOP CHILLED WATER PRIMARY PUMP OUTLET,Water,1
 Node,140,CHILLED WATER LOOP CHILLED WATER SUPPLY OUTLET PIPE INLET,Water,1
 Node,141,CHILLED WATER LOOP CHILLED WATER DEMAND INLET,Water,2
 Node,142,CHILLED WATER LOOP CHILLED WATER SECONDARY PUMP OUTLET,Water,1
 Node,143,CHILLED WATER LOOP CHILLED WATER DEMAND BYPASS INLET,Water,1
 Node,144,CHILLED WATER LOOP CHILLED WATER DEMAND BYPASS OUTLET,Water,1
 Node,145,CHILLED WATER LOOP CHILLED WATER DEMAND OUTLET PIPE INLET,Water,1
 Node,146,CHILLED WATER LOOP CHILLED WATER DEMAND OUTLET,Water,2
 Node,147,CONDENSER WATER LOOP CONDENSER WATER SUPPLY INLET,Water,2
 Node,148,CONDENSER WATER LOOP CONDENSER WATER PUMP OUTLET,Water,1
 Node,149,CONDENSER WATER LOOP CONDENSER WATER SUPPLY OUTLET PIPE INLET,Water,1
 Node,150,CONDENSER WATER LOOP CONDENSER WATER SUPPLY BYPASS INLET,Water,1
 Node,151,CONDENSER WATER LOOP CONDENSER WATER SUPPLY BYPASS OUTLET,Water,1
 Node,152,CONDENSER WATER LOOP CONDENSER WATER DEMAND INLET,Water,2
 Node,153,CONDENSER WATER LOOP CONDENSER WATER DEMAND INLET PIPE OUTLET,Water,1
 Node,154,CONDENSER WATER LOOP CONDENSER WATER DEMAND BYPASS INLET,Water,1
 Node,155,CONDENSER WATER LOOP CONDENSER WATER DEMAND BYPASS OUTLET,Water,1
 Node,156,CONDENSER WATER LOOP CONDENSER WATER DEMAND OUTLET PIPE INLET,Water,1
 Node,157,CONDENSER WATER LOOP CONDENSER WATER DEMAND OUTLET,Water,2
 Node,158,2ND STORY_A AIR LOOP INLET,Air,3
 Node,159,2ND STORY_A COOLING COIL CHILLED WATER INLET,Water,2
 Node,160,2ND STORY_A COOLING COIL CHILLED WATER OUTLET,Water,1
 Node,161,3RD STOREY AIR LOOP INLET,Air,3
 Node,162,3RD STOREY COOLING COIL CHILLED WATER INLET,Water,2
 Node,163,3RD STOREY COOLING COIL CHILLED WATER OUTLET,Water,1
 Node,164,3RD STORY_A AIR LOOP INLET,Air,3
 Node,165,3RD STORY_A COOLING COIL CHILLED WATER INLET,Water,2
 Node,166,3RD STORY_A COOLING COIL CHILLED WATER OUTLET,Water,1
 Node,167,2ND STOREY AIR LOOP INLET,Air,3
 Node,168,2ND STOREY COOLING COIL CHILLED WATER INLET,Water,2
 Node,169,2ND STOREY COOLING COIL CHILLED WATER OUTLET,Water,1
 Node,170,LOWER 1ST STOREY AIR LOOP INLET,Air,3
 Node,171,LOWER 1ST STOREY COOLING COIL CHILLED WATER INLET,Water,2
 Node,172,LOWER 1ST STOREY COOLING COIL CHILLED WATER OUTLET,Water,1
 Node,173,1ST STOREY AIR LOOP INLET,Air,3
 Node,174,1ST STOREY COOLING COIL CHILLED WATER INLET,Water,2
 Node,175,1ST STOREY COOLING COIL CHILLED WATER OUTLET,Water,1
 Node,176,2ND STORY_A OUTSIDE AIR INLET,Air,2
 Node,177,3RD STOREY OUTSIDE AIR INLET,Air,2
 Node,178,3RD STORY_A OUTSIDE AIR INLET,Air,2
 Node,179,2ND STOREY OUTSIDE AIR INLET,Air,2
 Node,180,LOWER 1ST STOREY OUTSIDE AIR INLET,Air,2
 Node,181,1ST STOREY OUTSIDE AIR INLET,Air,2
 Node,182,TOWER% COOLING TOWER OUTDOOR AIR INLET NODE,Air,1
 Node,183,2ND STORY_A:384 ROOM ZONE AIR NODE,Air,0
 Node,184,2ND STORY_A:384 ROOM RETURN OUTLET,Air,0
 Node,185,2ND STORY_A:384 ROOM SUPPLY INLET,Air,3
 Node,186,2ND STORY_A:359 ROOM ZONE AIR NODE,Air,0
 Node,187,2ND STORY_A:359 ROOM RETURN OUTLET,Air,0
 Node,188,2ND STORY_A:359 ROOM SUPPLY INLET,Air,3
 Node,189,3RD STOREY:415 ROOM ZONE AIR NODE,Air,0
 Node,190,3RD STOREY:415 ROOM RETURN OUTLET,Air,0
 Node,191,3RD STOREY:415 ROOM SUPPLY INLET,Air,3
 Node,192,3RD STORY_A:419 ROOM ZONE AIR NODE,Air,0
 Node,193,3RD STORY_A:419 ROOM RETURN OUTLET,Air,0
 Node,194,3RD STORY_A:419 ROOM SUPPLY INLET,Air,3
 Node,195,2ND STOREY:197 ROOM ZONE AIR NODE,Air,0
 Node,196,2ND STOREY:197 ROOM RETURN OUTLET,Air,0
 Node,197,2ND STOREY:197 ROOM SUPPLY INLET,Air,3
 Node,198,2ND STOREY:206 ROOM ZONE AIR NODE,Air,0
 Node,199,2ND STOREY:206 ROOM RETURN OUTLET,Air,0
 Node,200,2ND STOREY:206 ROOM SUPPLY INLET,Air,3
 Node,201,LOWER 1ST STOREY:354 ROOM ZONE AIR NODE,Air,0
 Node,202,LOWER 1ST STOREY:354 ROOM RETURN OUTLET,Air,0
 Node,203,LOWER 1ST STOREY:354 ROOM SUPPLY INLET,Air,3
 Node,204,LOWER 1ST STOREY:127 ROOM ZONE AIR NODE,Air,0
 Node,205,LOWER 1ST STOREY:127 ROOM RETURN OUTLET,Air,0
 Node,206,LOWER 1ST STOREY:127 ROOM SUPPLY INLET,Air,3
 Node,207,2ND STORY_A:371 ROOM ZONE AIR NODE,Air,0
 Node,208,2ND STORY_A:371 ROOM RETURN OUTLET,Air,0
 Node,209,2ND STORY_A:371 ROOM SUPPLY INLET,Air,3
 Node,210,1ST STOREY:126 ROOM ZONE AIR NODE,Air,0
 Node,211,1ST STOREY:126 ROOM RETURN OUTLET,Air,0
 Node,212,1ST STOREY:126 ROOM SUPPLY INLET,Air,3
 Node,213,3RD STOREY:318 ROOM ZONE AIR NODE,Air,0
 Node,214,3RD STOREY:318 ROOM RETURN OUTLET,Air,0
 Node,215,3RD STOREY:318 ROOM SUPPLY INLET,Air,3
 Node,216,1ST STOREY:420 ROOM ZONE AIR NODE,Air,0
 Node,217,1ST STOREY:420 ROOM RETURN OUTLET,Air,0
 Node,218,1ST STOREY:420 ROOM SUPPLY INLET,Air,3
 Node,219,2ND STOREY:194 ROOM ZONE AIR NODE,Air,0
 Node,220,2ND STOREY:194 ROOM RETURN OUTLET,Air,0
 Node,221,2ND STOREY:194 ROOM SUPPLY INLET,Air,3
 Node,222,2ND STORY_A:367 ROOM ZONE AIR NODE,Air,0
 Node,223,2ND STORY_A:367 ROOM RETURN OUTLET,Air,0
 Node,224,2ND STORY_A:367 ROOM SUPPLY INLET,Air,3
 Node,225,3RD STOREY:291 ROOM ZONE AIR NODE,Air,0
 Node,226,3RD STOREY:291 ROOM RETURN OUTLET,Air,0
 Node,227,3RD STOREY:291 ROOM SUPPLY INLET,Air,3
 Node,228,3RD STOREY:320 ROOM ZONE AIR NODE,Air,0
 Node,229,3RD STOREY:320 ROOM RETURN OUTLET,Air,0
 Node,230,3RD STOREY:320 ROOM SUPPLY INLET,Air,3
 Node,231,LOWER 1ST STOREY:143 ROOM ZONE AIR NODE,Air,0
 Node,232,LOWER 1ST STOREY:143 ROOM RETURN OUTLET,Air,0
 Node,233,LOWER 1ST STOREY:143 ROOM SUPPLY INLET,Air,3
 Node,234,2ND STOREY:392 ROOM ZONE AIR NODE,Air,0
 Node,235,2ND STOREY:392 ROOM RETURN OUTLET,Air,0
 Node,236,2ND STOREY:392 ROOM SUPPLY INLET,Air,3
 Node,237,2ND STOREY:249 ROOM ZONE AIR NODE,Air,0
 Node,238,2ND STOREY:249 ROOM RETURN OUTLET,Air,0
 Node,239,2ND STOREY:249 ROOM SUPPLY INLET,Air,3
 Node,240,3RD STOREY:308 ROOM ZONE AIR NODE,Air,0
 Node,241,3RD STOREY:308 ROOM RETURN OUTLET,Air,0
 Node,242,3RD STOREY:308 ROOM SUPPLY INLET,Air,3
 Node,243,1ST STOREY:236 ROOM ZONE AIR NODE,Air,0
 Node,244,1ST STOREY:236 ROOM RETURN OUTLET,Air,0
 Node,245,1ST STOREY:236 ROOM SUPPLY INLET,Air,3
 Node,246,1ST STOREY:123 ROOM ZONE AIR NODE,Air,0
 Node,247,1ST STOREY:123 ROOM RETURN OUTLET,Air,0
 Node,248,1ST STOREY:123 ROOM SUPPLY INLET,Air,3
 Node,249,1ST STOREY:44 ROOM ZONE AIR NODE,Air,0
 Node,250,1ST STOREY:44 ROOM RETURN OUTLET,Air,0
 Node,251,1ST STOREY:44 ROOM SUPPLY INLET,Air,3
 Node,252,3RD STOREY:310 ROOM ZONE AIR NODE,Air,0
 Node,253,3RD STOREY:310 ROOM RETURN OUTLET,Air,0
 Node,254,3RD STOREY:310 ROOM SUPPLY INLET,Air,3
 Node,255,1ST STOREY:99 ROOM ZONE AIR NODE,Air,0
 Node,256,1ST STOREY:99 ROOM RETURN OUTLET,Air,0
 Node,257,1ST STOREY:99 ROOM SUPPLY INLET,Air,3
 Node,258,3RD STORY_A:380 ROOM ZONE AIR NODE,Air,0
 Node,259,3RD STORY_A:380 ROOM RETURN OUTLET,Air,0
 Node,260,3RD STORY_A:380 ROOM SUPPLY INLET,Air,3
 Node,261,LOWER 1ST STOREY:129 ROOM ZONE AIR NODE,Air,0
 Node,262,LOWER 1ST STOREY:129 ROOM RETURN OUTLET,Air,0
 Node,263,LOWER 1ST STOREY:129 ROOM SUPPLY INLET,Air,3
 Node,264,LOWER 1ST STOREY:134 ROOM ZONE AIR NODE,Air,0
 Node,265,LOWER 1ST STOREY:134 ROOM RETURN OUTLET,Air,0
 Node,266,LOWER 1ST STOREY:134 ROOM SUPPLY INLET,Air,3
 Node,267,2ND STOREY:223 ROOM ZONE AIR NODE,Air,0
 Node,268,2ND STOREY:223 ROOM RETURN OUTLET,Air,0
 Node,269,2ND STOREY:223 ROOM SUPPLY INLET,Air,3
 Node,270,3RD STOREY:309 ROOM ZONE AIR NODE,Air,0
 Node,271,3RD STOREY:309 ROOM RETURN OUTLET,Air,0
 Node,272,3RD STOREY:309 ROOM SUPPLY INLET,Air,3
 Node,273,2ND STOREY:169 ROOM ZONE AIR NODE,Air,0
 Node,274,2ND STOREY:169 ROOM RETURN OUTLET,Air,0
 Node,275,2ND STOREY:169 ROOM SUPPLY INLET,Air,3
 Node,276,3RD STOREY:305 ROOM ZONE AIR NODE,Air,0
 Node,277,3RD STOREY:305 ROOM RETURN OUTLET,Air,0
 Node,278,3RD STOREY:305 ROOM SUPPLY INLET,Air,3
 Node,279,2ND STOREY:234 ROOM ZONE AIR NODE,Air,0
 Node,280,2ND STOREY:234 ROOM RETURN OUTLET,Air,0
 Node,281,2ND STOREY:234 ROOM SUPPLY INLET,Air,3
 Node,282,2ND STOREY:240 ROOM ZONE AIR NODE,Air,0
 Node,283,2ND STOREY:240 ROOM RETURN OUTLET,Air,0
 Node,284,2ND STOREY:240 ROOM SUPPLY INLET,Air,3
 Node,285,2ND STOREY:252 ROOM ZONE AIR NODE,Air,0
 Node,286,2ND STOREY:252 ROOM RETURN OUTLET,Air,0
 Node,287,2ND STOREY:252 ROOM SUPPLY INLET,Air,3
 Node,288,1ST STOREY:103 ROOM ZONE AIR NODE,Air,0
 Node,289,1ST STOREY:103 ROOM RETURN OUTLET,Air,0
 Node,290,1ST STOREY:103 ROOM SUPPLY INLET,Air,3
 Node,291,LOWER 1ST STOREY:142 ROOM ZONE AIR NODE,Air,0
 Node,292,LOWER 1ST STOREY:142 ROOM RETURN OUTLET,Air,0
 Node,293,LOWER 1ST STOREY:142 ROOM SUPPLY INLET,Air,3
 Node,294,LOWER 1ST STOREY:135 ROOM ZONE AIR NODE,Air,0
 Node,295,LOWER 1ST STOREY:135 ROOM RETURN OUTLET,Air,0
 Node,296,LOWER 1ST STOREY:135 ROOM SUPPLY INLET,Air,3
 Node,297,1ST STOREY:34 ROOM ZONE AIR NODE,Air,0
 Node,298,1ST STOREY:34 ROOM RETURN OUTLET,Air,0
 Node,299,1ST STOREY:34 ROOM SUPPLY INLET,Air,3
 Node,300,3RD STOREY:410 ROOM ZONE AIR NODE,Air,0
 Node,301,3RD STOREY:410 ROOM RETURN OUTLET,Air,0
 Node,302,3RD STOREY:410 ROOM SUPPLY INLET,Air,3
 Node,303,3RD STOREY:319 ROOM ZONE AIR NODE,Air,0
 Node,304,3RD STOREY:319 ROOM RETURN OUTLET,Air,0
 Node,305,3RD STOREY:319 ROOM SUPPLY INLET,Air,3
 Node,306,3RD STOREY:347 ROOM ZONE AIR NODE,Air,0
 Node,307,3RD STOREY:347 ROOM RETURN OUTLET,Air,0
 Node,308,3RD STOREY:347 ROOM SUPPLY INLET,Air,3
 Node,309,3RD STOREY:414 ROOM ZONE AIR NODE,Air,0
 Node,310,3RD STOREY:414 ROOM RETURN OUTLET,Air,0
 Node,311,3RD STOREY:414 ROOM SUPPLY INLET,Air,3
 Node,312,2ND STOREY:417 ROOM ZONE AIR NODE,Air,0
 Node,313,2ND STOREY:417 ROOM RETURN OUTLET,Air,0
 Node,314,2ND STOREY:417 ROOM SUPPLY INLET,Air,3
 Node,315,2ND STORY_A:370 ROOM ZONE AIR NODE,Air,0
 Node,316,2ND STORY_A:370 ROOM RETURN OUTLET,Air,0
 Node,317,2ND STORY_A:370 ROOM SUPPLY INLET,Air,3
 Node,318,3RD STOREY:298 ROOM ZONE AIR NODE,Air,0
 Node,319,3RD STOREY:298 ROOM RETURN OUTLET,Air,0
 Node,320,3RD STOREY:298 ROOM SUPPLY INLET,Air,3
 Node,321,2ND STORY_A:376 ROOM ZONE AIR NODE,Air,0
 Node,322,2ND STORY_A:376 ROOM RETURN OUTLET,Air,0
 Node,323,2ND STORY_A:376 ROOM SUPPLY INLET,Air,3
 Node,324,3RD STORY_A:381 ROOM ZONE AIR NODE,Air,0
 Node,325,3RD STORY_A:381 ROOM RETURN OUTLET,Air,0
 Node,326,3RD STORY_A:381 ROOM SUPPLY INLET,Air,3
 Node,327,2ND STORY_A:365 ROOM ZONE AIR NODE,Air,0
 Node,328,2ND STORY_A:365 ROOM RETURN OUTLET,Air,0
 Node,329,2ND STORY_A:365 ROOM SUPPLY INLET,Air,3
 Node,330,2ND STOREY:408 ROOM ZONE AIR NODE,Air,0
 Node,331,2ND STOREY:408 ROOM RETURN OUTLET,Air,0
 Node,332,2ND STOREY:408 ROOM SUPPLY INLET,Air,3
 Node,333,2ND STOREY:342 ROOM ZONE AIR NODE,Air,0
 Node,334,2ND STOREY:342 ROOM RETURN OUTLET,Air,0
 Node,335,2ND STOREY:342 ROOM SUPPLY INLET,Air,3
 Node,336,2ND STOREY:168 ROOM ZONE AIR NODE,Air,0
 Node,337,2ND STOREY:168 ROOM RETURN OUTLET,Air,0
 Node,338,2ND STOREY:168 ROOM SUPPLY INLET,Air,3
 Node,339,2ND STOREY:176 ROOM ZONE AIR NODE,Air,0
 Node,340,2ND STOREY:176 ROOM RETURN OUTLET,Air,0
 Node,341,2ND STOREY:176 ROOM SUPPLY INLET,Air,3
 Node,342,2ND STOREY:209 ROOM ZONE AIR NODE,Air,0
 Node,343,2ND STOREY:209 ROOM RETURN OUTLET,Air,0
 Node,344,2ND STOREY:209 ROOM SUPPLY INLET,Air,3
 Node,345,2ND STOREY:242 ROOM ZONE AIR NODE,Air,0
 Node,346,2ND STOREY:242 ROOM RETURN OUTLET,Air,0
 Node,347,2ND STOREY:242 ROOM SUPPLY INLET,Air,3
 Node,348,3RD STOREY:300 ROOM ZONE AIR NODE,Air,0
 Node,349,3RD STOREY:300 ROOM RETURN OUTLET,Air,0
 Node,350,3RD STOREY:300 ROOM SUPPLY INLET,Air,3
 Node,351,1ST STOREY:122 ROOM ZONE AIR NODE,Air,0
 Node,352,1ST STOREY:122 ROOM RETURN OUTLET,Air,0
 Node,353,1ST STOREY:122 ROOM SUPPLY INLET,Air,3
 Node,354,3RD STORY_A:382 ROOM ZONE AIR NODE,Air,0
 Node,355,3RD STORY_A:382 ROOM RETURN OUTLET,Air,0
 Node,356,3RD STORY_A:382 ROOM SUPPLY INLET,Air,3
 Node,357,2ND STORY_A:385 ROOM ZONE AIR NODE,Air,0
 Node,358,2ND STORY_A:385 ROOM RETURN OUTLET,Air,0
 Node,359,2ND STORY_A:385 ROOM SUPPLY INLET,Air,3
 Node,360,1ST STOREY:113 ROOM ZONE AIR NODE,Air,0
 Node,361,1ST STOREY:113 ROOM RETURN OUTLET,Air,0
 Node,362,1ST STOREY:113 ROOM SUPPLY INLET,Air,3
 Node,363,1ST STOREY:125 ROOM ZONE AIR NODE,Air,0
 Node,364,1ST STOREY:125 ROOM RETURN OUTLET,Air,0
 Node,365,1ST STOREY:125 ROOM SUPPLY INLET,Air,3
 Node,366,3RD STOREY:411 ROOM ZONE AIR NODE,Air,0
 Node,367,3RD STOREY:411 ROOM RETURN OUTLET,Air,0
 Node,368,3RD STOREY:411 ROOM SUPPLY INLET,Air,3
 Node,369,3RD STOREY:293 ROOM ZONE AIR NODE,Air,0
 Node,370,3RD STOREY:293 ROOM RETURN OUTLET,Air,0
 Node,371,3RD STOREY:293 ROOM SUPPLY INLET,Air,3
 Node,372,3RD STORY_A:387 ROOM ZONE AIR NODE,Air,0
 Node,373,3RD STORY_A:387 ROOM RETURN OUTLET,Air,0
 Node,374,3RD STORY_A:387 ROOM SUPPLY INLET,Air,3
 Node,375,3RD STOREY:284 ROOM ZONE AIR NODE,Air,0
 Node,376,3RD STOREY:284 ROOM RETURN OUTLET,Air,0
 Node,377,3RD STOREY:284 ROOM SUPPLY INLET,Air,3
 Node,378,3RD STOREY:316 ROOM ZONE AIR NODE,Air,0
 Node,379,3RD STOREY:316 ROOM RETURN OUTLET,Air,0
 Node,380,3RD STOREY:316 ROOM SUPPLY INLET,Air,3
 Node,381,2ND STOREY:181 ROOM ZONE AIR NODE,Air,0
 Node,382,2ND STOREY:181 ROOM RETURN OUTLET,Air,0
 Node,383,2ND STOREY:181 ROOM SUPPLY INLET,Air,3
 Node,384,LOWER 1ST STOREY:144 ROOM ZONE AIR NODE,Air,0
 Node,385,LOWER 1ST STOREY:144 ROOM RETURN OUTLET,Air,0
 Node,386,LOWER 1ST STOREY:144 ROOM SUPPLY INLET,Air,3
 Node,387,1ST STOREY:348 ROOM ZONE AIR NODE,Air,0
 Node,388,1ST STOREY:348 ROOM RETURN OUTLET,Air,0
 Node,389,1ST STOREY:348 ROOM SUPPLY INLET,Air,3
 Node,390,3RD STORY_A:378 ROOM ZONE AIR NODE,Air,0
 Node,391,3RD STORY_A:378 ROOM RETURN OUTLET,Air,0
 Node,392,3RD STORY_A:378 ROOM SUPPLY INLET,Air,3
 Node,393,2ND STOREY:245 ROOM ZONE AIR NODE,Air,0
 Node,394,2ND STOREY:245 ROOM RETURN OUTLET,Air,0
 Node,395,2ND STOREY:245 ROOM SUPPLY INLET,Air,3
 Node,396,2ND STOREY:251 ROOM ZONE AIR NODE,Air,0
 Node,397,2ND STOREY:251 ROOM RETURN OUTLET,Air,0
 Node,398,2ND STOREY:251 ROOM SUPPLY INLET,Air,3
 Node,399,3RD STOREY:283 ROOM ZONE AIR NODE,Air,0
 Node,400,3RD STOREY:283 ROOM RETURN OUTLET,Air,0
 Node,401,3RD STOREY:283 ROOM SUPPLY INLET,Air,3
 Node,402,3RD STOREY:405 ROOM ZONE AIR NODE,Air,0
 Node,403,3RD STOREY:405 ROOM RETURN OUTLET,Air,0
 Node,404,3RD STOREY:405 ROOM SUPPLY INLET,Air,3
 Node,405,3RD STORY_A:377 ROOM ZONE AIR NODE,Air,0
 Node,406,3RD STORY_A:377 ROOM RETURN OUTLET,Air,0
 Node,407,3RD STORY_A:377 ROOM SUPPLY INLET,Air,3
 Node,408,2ND STOREY:241 ROOM ZONE AIR NODE,Air,0
 Node,409,2ND STOREY:241 ROOM RETURN OUTLET,Air,0
 Node,410,2ND STOREY:241 ROOM SUPPLY INLET,Air,3
 Node,411,2ND STOREY:167 ROOM ZONE AIR NODE,Air,0
 Node,412,2ND STOREY:167 ROOM RETURN OUTLET,Air,0
 Node,413,2ND STOREY:167 ROOM SUPPLY INLET,Air,3
 Node,414,2ND STOREY:211 ROOM ZONE AIR NODE,Air,0
 Node,415,2ND STOREY:211 ROOM RETURN OUTLET,Air,0
 Node,416,2ND STOREY:211 ROOM SUPPLY INLET,Air,3
 Node,417,2ND STOREY:253 ROOM ZONE AIR NODE,Air,0
 Node,418,2ND STOREY:253 ROOM RETURN OUTLET,Air,0
 Node,419,2ND STOREY:253 ROOM SUPPLY INLET,Air,3
 Node,420,1ST STOREY:40 ROOM ZONE AIR NODE,Air,0
 Node,421,1ST STOREY:40 ROOM RETURN OUTLET,Air,0
 Node,422,1ST STOREY:40 ROOM SUPPLY INLET,Air,3
 Node,423,3RD STOREY:288 ROOM ZONE AIR NODE,Air,0
 Node,424,3RD STOREY:288 ROOM RETURN OUTLET,Air,0
 Node,425,3RD STOREY:288 ROOM SUPPLY INLET,Air,3
 Node,426,2ND STOREY:195 ROOM ZONE AIR NODE,Air,0
 Node,427,2ND STOREY:195 ROOM RETURN OUTLET,Air,0
 Node,428,2ND STOREY:195 ROOM SUPPLY INLET,Air,3
 Node,429,LOWER 1ST STOREY:130 ROOM ZONE AIR NODE,Air,0
 Node,430,LOWER 1ST STOREY:130 ROOM RETURN OUTLET,Air,0
 Node,431,LOWER 1ST STOREY:130 ROOM SUPPLY INLET,Air,3
 Node,432,1ST STOREY:98 ROOM ZONE AIR NODE,Air,0
 Node,433,1ST STOREY:98 ROOM RETURN OUTLET,Air,0
 Node,434,1ST STOREY:98 ROOM SUPPLY INLET,Air,3
 Node,435,1ST STOREY:100 ROOM ZONE AIR NODE,Air,0
 Node,436,1ST STOREY:100 ROOM RETURN OUTLET,Air,0
 Node,437,1ST STOREY:100 ROOM SUPPLY INLET,Air,3
 Node,438,2ND STORY_A:366 ROOM ZONE AIR NODE,Air,0
 Node,439,2ND STORY_A:366 ROOM RETURN OUTLET,Air,0
 Node,440,2ND STORY_A:366 ROOM SUPPLY INLET,Air,3
 Node,441,2ND STOREY:224 ROOM ZONE AIR NODE,Air,0
 Node,442,2ND STOREY:224 ROOM RETURN OUTLET,Air,0
 Node,443,2ND STOREY:224 ROOM SUPPLY INLET,Air,3
 Node,444,3RD STOREY:426 ROOM ZONE AIR NODE,Air,0
 Node,445,3RD STOREY:426 ROOM RETURN OUTLET,Air,0
 Node,446,3RD STOREY:426 ROOM SUPPLY INLET,Air,3
 Node,447,LOWER 1ST STOREY:356 ROOM ZONE AIR NODE,Air,0
 Node,448,LOWER 1ST STOREY:356 ROOM RETURN OUTLET,Air,0
 Node,449,LOWER 1ST STOREY:356 ROOM SUPPLY INLET,Air,3
 Node,450,2ND STOREY:225 ROOM ZONE AIR NODE,Air,0
 Node,451,2ND STOREY:225 ROOM RETURN OUTLET,Air,0
 Node,452,2ND STOREY:225 ROOM SUPPLY INLET,Air,3
 Node,453,LOWER 1ST STOREY:139 ROOM ZONE AIR NODE,Air,0
 Node,454,LOWER 1ST STOREY:139 ROOM RETURN OUTLET,Air,0
 Node,455,LOWER 1ST STOREY:139 ROOM SUPPLY INLET,Air,3
 Node,456,1ST STOREY:102 ROOM ZONE AIR NODE,Air,0
 Node,457,1ST STOREY:102 ROOM RETURN OUTLET,Air,0
 Node,458,1ST STOREY:102 ROOM SUPPLY INLET,Air,3
 Node,459,1ST STOREY:33 ROOM ZONE AIR NODE,Air,0
 Node,460,1ST STOREY:33 ROOM RETURN OUTLET,Air,0
 Node,461,1ST STOREY:33 ROOM SUPPLY INLET,Air,3
 Node,462,3RD STORY_A:379 ROOM ZONE AIR NODE,Air,0
 Node,463,3RD STORY_A:379 ROOM RETURN OUTLET,Air,0
 Node,464,3RD STORY_A:379 ROOM SUPPLY INLET,Air,3
 Node,465,2ND STORY_A:368 ROOM ZONE AIR NODE,Air,0
 Node,466,2ND STORY_A:368 ROOM RETURN OUTLET,Air,0
 Node,467,2ND STORY_A:368 ROOM SUPPLY INLET,Air,3
 Node,468,2ND STORY_A:369 ROOM ZONE AIR NODE,Air,0
 Node,469,2ND STORY_A:369 ROOM RETURN OUTLET,Air,0
 Node,470,2ND STORY_A:369 ROOM SUPPLY INLET,Air,3
 Node,471,3RD STOREY:294 ROOM ZONE AIR NODE,Air,0
 Node,472,3RD STOREY:294 ROOM RETURN OUTLET,Air,0
 Node,473,3RD STOREY:294 ROOM SUPPLY INLET,Air,3
 Node,474,3RD STORY_A:412 ROOM ZONE AIR NODE,Air,0
 Node,475,3RD STORY_A:412 ROOM RETURN OUTLET,Air,0
 Node,476,3RD STORY_A:412 ROOM SUPPLY INLET,Air,3
 Node,477,LOWER 1ST STOREY:235 ROOM ZONE AIR NODE,Air,0
 Node,478,LOWER 1ST STOREY:235 ROOM RETURN OUTLET,Air,0
 Node,479,LOWER 1ST STOREY:235 ROOM SUPPLY INLET,Air,3
 Node,480,3RD STOREY:285 ROOM ZONE AIR NODE,Air,0
 Node,481,3RD STOREY:285 ROOM RETURN OUTLET,Air,0
 Node,482,3RD STOREY:285 ROOM SUPPLY INLET,Air,3
 Node,483,2ND STOREY:173 ROOM ZONE AIR NODE,Air,0
 Node,484,2ND STOREY:173 ROOM RETURN OUTLET,Air,0
 Node,485,2ND STOREY:173 ROOM SUPPLY INLET,Air,3
 Node,486,3RD STOREY:302 ROOM ZONE AIR NODE,Air,0
 Node,487,3RD STOREY:302 ROOM RETURN OUTLET,Air,0
 Node,488,3RD STOREY:302 ROOM SUPPLY INLET,Air,3
 Node,489,2ND STOREY:203 ROOM ZONE AIR NODE,Air,0
 Node,490,2ND STOREY:203 ROOM RETURN OUTLET,Air,0
 Node,491,2ND STOREY:203 ROOM SUPPLY INLET,Air,3
 Node,492,3RD STOREY:301 ROOM ZONE AIR NODE,Air,0
 Node,493,3RD STOREY:301 ROOM RETURN OUTLET,Air,0
 Node,494,3RD STOREY:301 ROOM SUPPLY INLET,Air,3
 Node,495,2ND STORY_A:375 ROOM ZONE AIR NODE,Air,0
 Node,496,2ND STORY_A:375 ROOM RETURN OUTLET,Air,0
 Node,497,2ND STORY_A:375 ROOM SUPPLY INLET,Air,3
 Node,498,1ST STOREY:421 ROOM ZONE AIR NODE,Air,0
 Node,499,1ST STOREY:421 ROOM RETURN OUTLET,Air,0
 Node,500,1ST STOREY:421 ROOM SUPPLY INLET,Air,3
 Node,501,LOWER 1ST STOREY:128 ROOM ZONE AIR NODE,Air,0
 Node,502,LOWER 1ST STOREY:128 ROOM RETURN OUTLET,Air,0
 Node,503,LOWER 1ST STOREY:128 ROOM SUPPLY INLET,Air,3
 Node,504,2ND STORY_A:364 ROOM ZONE AIR NODE,Air,0
 Node,505,2ND STORY_A:364 ROOM RETURN OUTLET,Air,0
 Node,506,2ND STORY_A:364 ROOM SUPPLY INLET,Air,3
 Node,507,1ST STOREY:237 ROOM ZONE AIR NODE,Air,0
 Node,508,1ST STOREY:237 ROOM RETURN OUTLET,Air,0
 Node,509,1ST STOREY:237 ROOM SUPPLY INLET,Air,3
 Node,510,2ND STORY_A SUPPLY PATH INLET,Air,2
 Node,511,3RD STOREY SUPPLY PATH INLET,Air,2
 Node,512,3RD STORY_A SUPPLY PATH INLET,Air,2
 Node,513,2ND STOREY SUPPLY PATH INLET,Air,2
 Node,514,LOWER 1ST STOREY SUPPLY PATH INLET,Air,2
 Node,515,1ST STOREY SUPPLY PATH INLET,Air,2
 Node,516,2ND STORY_A RETURN AIR OUTLET,Air,2
 Node,517,3RD STOREY RETURN AIR OUTLET,Air,2
 Node,518,3RD STORY_A RETURN AIR OUTLET,Air,2
 Node,519,2ND STOREY RETURN AIR OUTLET,Air,2
 Node,520,LOWER 1ST STOREY RETURN AIR OUTLET,Air,2
 Node,521,1ST STOREY RETURN AIR OUTLET,Air,2
 Node,522,2ND STORY_A RELIEF AIR OUTLET,Air,1
 Node,523,3RD STOREY RELIEF AIR OUTLET,Air,1
 Node,524,3RD STORY_A RELIEF AIR OUTLET,Air,1
 Node,525,2ND STOREY RELIEF AIR OUTLET,Air,1
 Node,526,LOWER 1ST STOREY RELIEF AIR OUTLET,Air,1
 Node,527,1ST STOREY RELIEF AIR OUTLET,Air,1
! ===============================================================
! Suspicious nodes have 0 references.  It is normal for some nodes, however.
! Listing nodes with 0 references (culled from previous list):
! <Suspicious Node>,<NodeNumber>,<Node Name>,<Node Fluid Type>,<# Times Node Referenced After Definition>
 Suspicious Node,183,2ND STORY_A:384 ROOM ZONE AIR NODE,Air,0
 Suspicious Node,184,2ND STORY_A:384 ROOM RETURN OUTLET,Air,0
 Suspicious Node,186,2ND STORY_A:359 ROOM ZONE AIR NODE,Air,0
 Suspicious Node,187,2ND STORY_A:359 ROOM RETURN OUTLET,Air,0
 Suspicious Node,189,3RD STOREY:415 ROOM ZONE AIR NODE,Air,0
 Suspicious Node,190,3RD STOREY:415 ROOM RETURN OUTLET,Air,0
 Suspicious Node,192,3RD STORY_A:419 ROOM ZONE AIR NODE,Air,0
 Suspicious Node,193,3RD STORY_A:419 ROOM RETURN OUTLET,Air,0
 Suspicious Node,195,2ND STOREY:197 ROOM ZONE AIR NODE,Air,0
 Suspicious Node,196,2ND STOREY:197 ROOM RETURN OUTLET,Air,0
 Suspicious Node,198,2ND STOREY:206 ROOM ZONE AIR NODE,Air,0
 Suspicious Node,199,2ND STOREY:206 ROOM RETURN OUTLET,Air,0
 Suspicious Node,201,LOWER 1ST STOREY:354 ROOM ZONE AIR NODE,Air,0
 Suspicious Node,202,LOWER 1ST STOREY:354 ROOM RETURN OUTLET,Air,0
 Suspicious Node,204,LOWER 1ST STOREY:127 ROOM ZONE AIR NODE,Air,0
 Suspicious Node,205,LOWER 1ST STOREY:127 ROOM RETURN OUTLET,Air,0
 Suspicious Node,207,2ND STORY_A:371 ROOM ZONE AIR NODE,Air,0
 Suspicious Node,208,2ND STORY_A:371 ROOM RETURN OUTLET,Air,0
 Suspicious Node,210,1ST STOREY:126 ROOM ZONE AIR NODE,Air,0
 Suspicious Node,211,1ST STOREY:126 ROOM RETURN OUTLET,Air,0
 Suspicious Node,213,3RD STOREY:318 ROOM ZONE AIR NODE,Air,0
 Suspicious Node,214,3RD STOREY:318 ROOM RETURN OUTLET,Air,0
 Suspicious Node,216,1ST STOREY:420 ROOM ZONE AIR NODE,Air,0
 Suspicious Node,217,1ST STOREY:420 ROOM RETURN OUTLET,Air,0
 Suspicious Node,219,2ND STOREY:194 ROOM ZONE AIR NODE,Air,0
 Suspicious Node,220,2ND STOREY:194 ROOM RETURN OUTLET,Air,0
 Suspicious Node,222,2ND STORY_A:367 ROOM ZONE AIR NODE,Air,0
 Suspicious Node,223,2ND STORY_A:367 ROOM RETURN OUTLET,Air,0
 Suspicious Node,225,3RD STOREY:291 ROOM ZONE AIR NODE,Air,0
 Suspicious Node,226,3RD STOREY:291 ROOM RETURN OUTLET,Air,0
 Suspicious Node,228,3RD STOREY:320 ROOM ZONE AIR NODE,Air,0
 Suspicious Node,229,3RD STOREY:320 ROOM RETURN OUTLET,Air,0
 Suspicious Node,231,LOWER 1ST STOREY:143 ROOM ZONE AIR NODE,Air,0
 Suspicious Node,232,LOWER 1ST STOREY:143 ROOM RETURN OUTLET,Air,0
 Suspicious Node,234,2ND STOREY:392 ROOM ZONE AIR NODE,Air,0
 Suspicious Node,235,2ND STOREY:392 ROOM RETURN OUTLET,Air,0
 Suspicious Node,237,2ND STOREY:249 ROOM ZONE AIR NODE,Air,0
 Suspicious Node,238,2ND STOREY:249 ROOM RETURN OUTLET,Air,0
 Suspicious Node,240,3RD STOREY:308 ROOM ZONE AIR NODE,Air,0
 Suspicious Node,241,3RD STOREY:308 ROOM RETURN OUTLET,Air,0
 Suspicious Node,243,1ST STOREY:236 ROOM ZONE AIR NODE,Air,0
 Suspicious Node,244,1ST STOREY:236 ROOM RETURN OUTLET,Air,0
 Suspicious Node,246,1ST STOREY:123 ROOM ZONE AIR NODE,Air,0
 Suspicious Node,247,1ST STOREY:123 ROOM RETURN OUTLET,Air,0
 Suspicious Node,249,1ST STOREY:44 ROOM ZONE AIR NODE,Air,0
 Suspicious Node,250,1ST STOREY:44 ROOM RETURN OUTLET,Air,0
 Suspicious Node,252,3RD STOREY:310 ROOM ZONE AIR NODE,Air,0
 Suspicious Node,253,3RD STOREY:310 ROOM RETURN OUTLET,Air,0
 Suspicious Node,255,1ST STOREY:99 ROOM ZONE AIR NODE,Air,0
 Suspicious Node,256,1ST STOREY:99 ROOM RETURN OUTLET,Air,0
 Suspicious Node,258,3RD STORY_A:380 ROOM ZONE AIR NODE,Air,0
 Suspicious Node,259,3RD STORY_A:380 ROOM RETURN OUTLET,Air,0
 Suspicious Node,261,LOWER 1ST STOREY:129 ROOM ZONE AIR NODE,Air,0
 Suspicious Node,262,LOWER 1ST STOREY:129 ROOM RETURN OUTLET,Air,0
 Suspicious Node,264,LOWER 1ST STOREY:134 ROOM ZONE AIR NODE,Air,0
 Suspicious Node,265,LOWER 1ST STOREY:134 ROOM RETURN OUTLET,Air,0
 Suspicious Node,267,2ND STOREY:223 ROOM ZONE AIR NODE,Air,0
 Suspicious Node,268,2ND STOREY:223 ROOM RETURN OUTLET,Air,0
 Suspicious Node,270,3RD STOREY:309 ROOM ZONE AIR NODE,Air,0
 Suspicious Node,271,3RD STOREY:309 ROOM RETURN OUTLET,Air,0
 Suspicious Node,273,2ND STOREY:169 ROOM ZONE AIR NODE,Air,0
 Suspicious Node,274,2ND STOREY:169 ROOM RETURN OUTLET,Air,0
 Suspicious Node,276,3RD STOREY:305 ROOM ZONE AIR NODE,Air,0
 Suspicious Node,277,3RD STOREY:305 ROOM RETURN OUTLET,Air,0
 Suspicious Node,279,2ND STOREY:234 ROOM ZONE AIR NODE,Air,0
 Suspicious Node,280,2ND STOREY:234 ROOM RETURN OUTLET,Air,0
 Suspicious Node,282,2ND STOREY:240 ROOM ZONE AIR NODE,Air,0
 Suspicious Node,283,2ND STOREY:240 ROOM RETURN OUTLET,Air,0
 Suspicious Node,285,2ND STOREY:252 ROOM ZONE AIR NODE,Air,0
 Suspicious Node,286,2ND STOREY:252 ROOM RETURN OUTLET,Air,0
 Suspicious Node,288,1ST STOREY:103 ROOM ZONE AIR NODE,Air,0
 Suspicious Node,289,1ST STOREY:103 ROOM RETURN OUTLET,Air,0
 Suspicious Node,291,LOWER 1ST STOREY:142 ROOM ZONE AIR NODE,Air,0
 Suspicious Node,292,LOWER 1ST STOREY:142 ROOM RETURN OUTLET,Air,0
 Suspicious Node,294,LOWER 1ST STOREY:135 ROOM ZONE AIR NODE,Air,0
 Suspicious Node,295,LOWER 1ST STOREY:135 ROOM RETURN OUTLET,Air,0
 Suspicious Node,297,1ST STOREY:34 ROOM ZONE AIR NODE,Air,0
 Suspicious Node,298,1ST STOREY:34 ROOM RETURN OUTLET,Air,0
 Suspicious Node,300,3RD STOREY:410 ROOM ZONE AIR NODE,Air,0
 Suspicious Node,301,3RD STOREY:410 ROOM RETURN OUTLET,Air,0
 Suspicious Node,303,3RD STOREY:319 ROOM ZONE AIR NODE,Air,0
 Suspicious Node,304,3RD STOREY:319 ROOM RETURN OUTLET,Air,0
 Suspicious Node,306,3RD STOREY:347 ROOM ZONE AIR NODE,Air,0
 Suspicious Node,307,3RD STOREY:347 ROOM RETURN OUTLET,Air,0
 Suspicious Node,309,3RD STOREY:414 ROOM ZONE AIR NODE,Air,0
 Suspicious Node,310,3RD STOREY:414 ROOM RETURN OUTLET,Air,0
 Suspicious Node,312,2ND STOREY:417 ROOM ZONE AIR NODE,Air,0
 Suspicious Node,313,2ND STOREY:417 ROOM RETURN OUTLET,Air,0
 Suspicious Node,315,2ND STORY_A:370 ROOM ZONE AIR NODE,Air,0
 Suspicious Node,316,2ND STORY_A:370 ROOM RETURN OUTLET,Air,0
 Suspicious Node,318,3RD STOREY:298 ROOM ZONE AIR NODE,Air,0
 Suspicious Node,319,3RD STOREY:298 ROOM RETURN OUTLET,Air,0
 Suspicious Node,321,2ND STORY_A:376 ROOM ZONE AIR NODE,Air,0
 Suspicious Node,322,2ND STORY_A:376 ROOM RETURN OUTLET,Air,0
 Suspicious Node,324,3RD STORY_A:381 ROOM ZONE AIR NODE,Air,0
 Suspicious Node,325,3RD STORY_A:381 ROOM RETURN OUTLET,Air,0
 Suspicious Node,327,2ND STORY_A:365 ROOM ZONE AIR NODE,Air,0
 Suspicious Node,328,2ND STORY_A:365 ROOM RETURN OUTLET,Air,0
 Suspicious Node,330,2ND STOREY:408 ROOM ZONE AIR NODE,Air,0
 Suspicious Node,331,2ND STOREY:408 ROOM RETURN OUTLET,Air,0
 Suspicious Node,333,2ND STOREY:342 ROOM ZONE AIR NODE,Air,0
 Suspicious Node,334,2ND STOREY:342 ROOM RETURN OUTLET,Air,0
 Suspicious Node,336,2ND STOREY:168 ROOM ZONE AIR NODE,Air,0
 Suspicious Node,337,2ND STOREY:168 ROOM RETURN OUTLET,Air,0
 Suspicious Node,339,2ND STOREY:176 ROOM ZONE AIR NODE,Air,0
 Suspicious Node,340,2ND STOREY:176 ROOM RETURN OUTLET,Air,0
 Suspicious Node,342,2ND STOREY:209 ROOM ZONE AIR NODE,Air,0
 Suspicious Node,343,2ND STOREY:209 ROOM RETURN OUTLET,Air,0
 Suspicious Node,345,2ND STOREY:242 ROOM ZONE AIR NODE,Air,0
 Suspicious Node,346,2ND STOREY:242 ROOM RETURN OUTLET,Air,0
 Suspicious Node,348,3RD STOREY:300 ROOM ZONE AIR NODE,Air,0
 Suspicious Node,349,3RD STOREY:300 ROOM RETURN OUTLET,Air,0
 Suspicious Node,351,1ST STOREY:122 ROOM ZONE AIR NODE,Air,0
 Suspicious Node,352,1ST STOREY:122 ROOM RETURN OUTLET,Air,0
 Suspicious Node,354,3RD STORY_A:382 ROOM ZONE AIR NODE,Air,0
 Suspicious Node,355,3RD STORY_A:382 ROOM RETURN OUTLET,Air,0
 Suspicious Node,357,2ND STORY_A:385 ROOM ZONE AIR NODE,Air,0
 Suspicious Node,358,2ND STORY_A:385 ROOM RETURN OUTLET,Air,0
 Suspicious Node,360,1ST STOREY:113 ROOM ZONE AIR NODE,Air,0
 Suspicious Node,361,1ST STOREY:113 ROOM RETURN OUTLET,Air,0
 Suspicious Node,363,1ST STOREY:125 ROOM ZONE AIR NODE,Air,0
 Suspicious Node,364,1ST STOREY:125 ROOM RETURN OUTLET,Air,0
 Suspicious Node,366,3RD STOREY:411 ROOM ZONE AIR NODE,Air,0
 Suspicious Node,367,3RD STOREY:411 ROOM RETURN OUTLET,Air,0
 Suspicious Node,369,3RD STOREY:293 ROOM ZONE AIR NODE,Air,0
 Suspicious Node,370,3RD STOREY:293 ROOM RETURN OUTLET,Air,0
 Suspicious Node,372,3RD STORY_A:387 ROOM ZONE AIR NODE,Air,0
 Suspicious Node,373,3RD STORY_A:387 ROOM RETURN OUTLET,Air,0
 Suspicious Node,375,3RD STOREY:284 ROOM ZONE AIR NODE,Air,0
 Suspicious Node,376,3RD STOREY:284 ROOM RETURN OUTLET,Air,0
 Suspicious Node,378,3RD STOREY:316 ROOM ZONE AIR NODE,Air,0
 Suspicious Node,379,3RD STOREY:316 ROOM RETURN OUTLET,Air,0
 Suspicious Node,381,2ND STOREY:181 ROOM ZONE AIR NODE,Air,0
 Suspicious Node,382,2ND STOREY:181 ROOM RETURN OUTLET,Air,0
 Suspicious Node,384,LOWER 1ST STOREY:144 ROOM ZONE AIR NODE,Air,0
 Suspicious Node,385,LOWER 1ST STOREY:144 ROOM RETURN OUTLET,Air,0
 Suspicious Node,387,1ST STOREY:348 ROOM ZONE AIR NODE,Air,0
 Suspicious Node,388,1ST STOREY:348 ROOM RETURN OUTLET,Air,0
 Suspicious Node,390,3RD STORY_A:378 ROOM ZONE AIR NODE,Air,0
 Suspicious Node,391,3RD STORY_A:378 ROOM RETURN OUTLET,Air,0
 Suspicious Node,393,2ND STOREY:245 ROOM ZONE AIR NODE,Air,0
 Suspicious Node,394,2ND STOREY:245 ROOM RETURN OUTLET,Air,0
 Suspicious Node,396,2ND STOREY:251 ROOM ZONE AIR NODE,Air,0
 Suspicious Node,397,2ND STOREY:251 ROOM RETURN OUTLET,Air,0
 Suspicious Node,399,3RD STOREY:283 ROOM ZONE AIR NODE,Air,0
 Suspicious Node,400,3RD STOREY:283 ROOM RETURN OUTLET,Air,0
 Suspicious Node,402,3RD STOREY:405 ROOM ZONE AIR NODE,Air,0
 Suspicious Node,403,3RD STOREY:405 ROOM RETURN OUTLET,Air,0
 Suspicious Node,405,3RD STORY_A:377 ROOM ZONE AIR NODE,Air,0
 Suspicious Node,406,3RD STORY_A:377 ROOM RETURN OUTLET,Air,0
 Suspicious Node,408,2ND STOREY:241 ROOM ZONE AIR NODE,Air,0
 Suspicious Node,409,2ND STOREY:241 ROOM RETURN OUTLET,Air,0
 Suspicious Node,411,2ND STOREY:167 ROOM ZONE AIR NODE,Air,0
 Suspicious Node,412,2ND STOREY:167 ROOM RETURN OUTLET,Air,0
 Suspicious Node,414,2ND STOREY:211 ROOM ZONE AIR NODE,Air,0
 Suspicious Node,415,2ND STOREY:211 ROOM RETURN OUTLET,Air,0
 Suspicious Node,417,2ND STOREY:253 ROOM ZONE AIR NODE,Air,0
 Suspicious Node,418,2ND STOREY:253 ROOM RETURN OUTLET,Air,0
 Suspicious Node,420,1ST STOREY:40 ROOM ZONE AIR NODE,Air,0
 Suspicious Node,421,1ST STOREY:40 ROOM RETURN OUTLET,Air,0
 Suspicious Node,423,3RD STOREY:288 ROOM ZONE AIR NODE,Air,0
 Suspicious Node,424,3RD STOREY:288 ROOM RETURN OUTLET,Air,0
 Suspicious Node,426,2ND STOREY:195 ROOM ZONE AIR NODE,Air,0
 Suspicious Node,427,2ND STOREY:195 ROOM RETURN OUTLET,Air,0
 Suspicious Node,429,LOWER 1ST STOREY:130 ROOM ZONE AIR NODE,Air,0
 Suspicious Node,430,LOWER 1ST STOREY:130 ROOM RETURN OUTLET,Air,0
 Suspicious Node,432,1ST STOREY:98 ROOM ZONE AIR NODE,Air,0
 Suspicious Node,433,1ST STOREY:98 ROOM RETURN OUTLET,Air,0
 Suspicious Node,435,1ST STOREY:100 ROOM ZONE AIR NODE,Air,0
 Suspicious Node,436,1ST STOREY:100 ROOM RETURN OUTLET,Air,0
 Suspicious Node,438,2ND STORY_A:366 ROOM ZONE AIR NODE,Air,0
 Suspicious Node,439,2ND STORY_A:366 ROOM RETURN OUTLET,Air,0
 Suspicious Node,441,2ND STOREY:224 ROOM ZONE AIR NODE,Air,0
 Suspicious Node,442,2ND STOREY:224 ROOM RETURN OUTLET,Air,0
 Suspicious Node,444,3RD STOREY:426 ROOM ZONE AIR NODE,Air,0
 Suspicious Node,445,3RD STOREY:426 ROOM RETURN OUTLET,Air,0
 Suspicious Node,447,LOWER 1ST STOREY:356 ROOM ZONE AIR NODE,Air,0
 Suspicious Node,448,LOWER 1ST STOREY:356 ROOM RETURN OUTLET,Air,0
 Suspicious Node,450,2ND STOREY:225 ROOM ZONE AIR NODE,Air,0
 Suspicious Node,451,2ND STOREY:225 ROOM RETURN OUTLET,Air,0
 Suspicious Node,453,LOWER 1ST STOREY:139 ROOM ZONE AIR NODE,Air,0
 Suspicious Node,454,LOWER 1ST STOREY:139 ROOM RETURN OUTLET,Air,0
 Suspicious Node,456,1ST STOREY:102 ROOM ZONE AIR NODE,Air,0
 Suspicious Node,457,1ST STOREY:102 ROOM RETURN OUTLET,Air,0
 Suspicious Node,459,1ST STOREY:33 ROOM ZONE AIR NODE,Air,0
 Suspicious Node,460,1ST STOREY:33 ROOM RETURN OUTLET,Air,0
 Suspicious Node,462,3RD STORY_A:379 ROOM ZONE AIR NODE,Air,0
 Suspicious Node,463,3RD STORY_A:379 ROOM RETURN OUTLET,Air,0
 Suspicious Node,465,2ND STORY_A:368 ROOM ZONE AIR NODE,Air,0
 Suspicious Node,466,2ND STORY_A:368 ROOM RETURN OUTLET,Air,0
 Suspicious Node,468,2ND STORY_A:369 ROOM ZONE AIR NODE,Air,0
 Suspicious Node,469,2ND STORY_A:369 ROOM RETURN OUTLET,Air,0
 Suspicious Node,471,3RD STOREY:294 ROOM ZONE AIR NODE,Air,0
 Suspicious Node,472,3RD STOREY:294 ROOM RETURN OUTLET,Air,0
 Suspicious Node,474,3RD STORY_A:412 ROOM ZONE AIR NODE,Air,0
 Suspicious Node,475,3RD STORY_A:412 ROOM RETURN OUTLET,Air,0
 Suspicious Node,477,LOWER 1ST STOREY:235 ROOM ZONE AIR NODE,Air,0
 Suspicious Node,478,LOWER 1ST STOREY:235 ROOM RETURN OUTLET,Air,0
 Suspicious Node,480,3RD STOREY:285 ROOM ZONE AIR NODE,Air,0
 Suspicious Node,481,3RD STOREY:285 ROOM RETURN OUTLET,Air,0
 Suspicious Node,483,2ND STOREY:173 ROOM ZONE AIR NODE,Air,0
 Suspicious Node,484,2ND STOREY:173 ROOM RETURN OUTLET,Air,0
 Suspicious Node,486,3RD STOREY:302 ROOM ZONE AIR NODE,Air,0
 Suspicious Node,487,3RD STOREY:302 ROOM RETURN OUTLET,Air,0
 Suspicious Node,489,2ND STOREY:203 ROOM ZONE AIR NODE,Air,0
 Suspicious Node,490,2ND STOREY:203 ROOM RETURN OUTLET,Air,0
 Suspicious Node,492,3RD STOREY:301 ROOM ZONE AIR NODE,Air,0
 Suspicious Node,493,3RD STOREY:301 ROOM RETURN OUTLET,Air,0
 Suspicious Node,495,2ND STORY_A:375 ROOM ZONE AIR NODE,Air,0
 Suspicious Node,496,2ND STORY_A:375 ROOM RETURN OUTLET,Air,0
 Suspicious Node,498,1ST STOREY:421 ROOM ZONE AIR NODE,Air,0
 Suspicious Node,499,1ST STOREY:421 ROOM RETURN OUTLET,Air,0
 Suspicious Node,501,LOWER 1ST STOREY:128 ROOM ZONE AIR NODE,Air,0
 Suspicious Node,502,LOWER 1ST STOREY:128 ROOM RETURN OUTLET,Air,0
 Suspicious Node,504,2ND STORY_A:364 ROOM ZONE AIR NODE,Air,0
 Suspicious Node,505,2ND STORY_A:364 ROOM RETURN OUTLET,Air,0
 Suspicious Node,507,1ST STOREY:237 ROOM ZONE AIR NODE,Air,0
 Suspicious Node,508,1ST STOREY:237 ROOM RETURN OUTLET,Air,0
! ===============================================================
! <#Branch Lists>,<Number of Branch Lists>
 #Branch Lists,10
! <Branch List>,<Branch List Count>,<Branch List Name>,<Loop Name>,<Loop Type>,<Number of Branches>
! <Branch>,<Branch Count>,<Branch Name>,<Loop Name>,<Loop Type>,<Branch Inlet Node Name>,<Branch Outlet Node Name>
 Branch List,1,CHILLED WATER LOOP CHILLED WATER DEMAND SIDE BRANCHES,CHILLED WATER LOOP,Plant Demand,9
   Branch,1,CHILLED WATER LOOP CHILLED WATER DEMAND INLET BRANCH,CHILLED WATER LOOP,Plant Demand,CHILLED WATER LOOP CHILLED WATER DEMAND INLET,CHILLED WATER LOOP CHILLED WATER SECONDARY PUMP OUTLET
   Branch,2,CHILLED WATER LOOP CHILLED WATER DEMAND BYPASS BRANCH,CHILLED WATER LOOP,Plant Demand,CHILLED WATER LOOP CHILLED WATER DEMAND BYPASS INLET,CHILLED WATER LOOP CHILLED WATER DEMAND BYPASS OUTLET
   Branch,3,2ND STORY_A COOLING COIL CHILLED WATER BRANCH,CHILLED WATER LOOP,Plant Demand,2ND STORY_A COOLING COIL CHILLED WATER INLET,2ND STORY_A COOLING COIL CHILLED WATER OUTLET
   Branch,4,3RD STOREY COOLING COIL CHILLED WATER BRANCH,CHILLED WATER LOOP,Plant Demand,3RD STOREY COOLING COIL CHILLED WATER INLET,3RD STOREY COOLING COIL CHILLED WATER OUTLET
   Branch,5,3RD STORY_A COOLING COIL CHILLED WATER BRANCH,CHILLED WATER LOOP,Plant Demand,3RD STORY_A COOLING COIL CHILLED WATER INLET,3RD STORY_A COOLING COIL CHILLED WATER OUTLET
   Branch,6,2ND STOREY COOLING COIL CHILLED WATER BRANCH,CHILLED WATER LOOP,Plant Demand,2ND STOREY COOLING COIL CHILLED WATER INLET,2ND STOREY COOLING COIL CHILLED WATER OUTLET
   Branch,7,LOWER 1ST STOREY COOLING COIL CHILLED WATER BRANCH,CHILLED WATER LOOP,Plant Demand,LOWER 1ST STOREY COOLING COIL CHILLED WATER INLET,LOWER 1ST STOREY COOLING COIL CHILLED WATER OUTLET
   Branch,8,1ST STOREY COOLING COIL CHILLED WATER BRANCH,CHILLED WATER LOOP,Plant Demand,1ST STOREY COOLING COIL CHILLED WATER INLET,1ST STOREY COOLING COIL CHILLED WATER OUTLET
   Branch,9,CHILLED WATER LOOP CHILLED WATER DEMAND OUTLET BRANCH,CHILLED WATER LOOP,Plant Demand,CHILLED WATER LOOP CHILLED WATER DEMAND OUTLET PIPE INLET,CHILLED WATER LOOP CHILLED WATER DEMAND OUTLET
 Branch List,2,CHILLED WATER LOOP CHILLED WATER SUPPLY SIDE BRANCHES,CHILLED WATER LOOP,Plant Supply,4
   Branch,1,CHILLED WATER LOOP CHILLED WATER SUPPLY INLET BRANCH,CHILLED WATER LOOP,Plant Supply,CHILLED WATER LOOP CHILLED WATER SUPPLY INLET,CHILLED WATER LOOP CHILLED WATER PRIMARY PUMP OUTLET
   Branch,2,CHILLER% CHILLED WATER BRANCH,CHILLED WATER LOOP,Plant Supply,CHILLER% CHILLED WATER INLET,CHILLER% CHILLED WATER OUTLET
   Branch,3,CHILLED WATER LOOP CHILLED WATER SUPPLY BYPASS BRANCH,CHILLED WATER LOOP,Plant Supply,CHILLED WATER LOOP CHILLED WATER SUPPLY BYPASS INLET,CHILLED WATER LOOP CHILLED WATER SUPPLY BYPASS OUTLET
   Branch,4,CHILLED WATER LOOP CHILLED WATER SUPPLY OUTLET BRANCH,CHILLED WATER LOOP,Plant Supply,CHILLED WATER LOOP CHILLED WATER SUPPLY OUTLET PIPE INLET,CHILLED WATER LOOP CHILLED WATER SUPPLY OUTLET
 Branch List,3,CONDENSER WATER LOOP CONDENSER WATER SUPPLY SIDE BRANCHES,CONDENSER WATER LOOP,Condenser Supply,4
   Branch,1,CONDENSER WATER LOOP CONDENSER WATER SUPPLY INLET BRANCH,CONDENSER WATER LOOP,Condenser Supply,CONDENSER WATER LOOP CONDENSER WATER SUPPLY INLET,CONDENSER WATER LOOP CONDENSER WATER PUMP OUTLET
   Branch,2,TOWER% CONDENSER WATER BRANCH,CONDENSER WATER LOOP,Condenser Supply,TOWER% CONDENSER WATER INLET,TOWER% CONDENSER WATER OUTLET
   Branch,3,CONDENSER WATER LOOP CONDENSER WATER SUPPLY BYPASS BRANCH,CONDENSER WATER LOOP,Condenser Supply,CONDENSER WATER LOOP CONDENSER WATER SUPPLY BYPASS INLET,CONDENSER WATER LOOP CONDENSER WATER SUPPLY BYPASS OUTLET
   Branch,4,CONDENSER WATER LOOP CONDENSER WATER SUPPLY OUTLET BRANCH,CONDENSER WATER LOOP,Condenser Supply,CONDENSER WATER LOOP CONDENSER WATER SUPPLY OUTLET PIPE INLET,CONDENSER WATER LOOP CONDENSER WATER SUPPLY OUTLET
 Branch List,4,CONDENSER WATER LOOP CONDENSER WATER DEMAND SIDE BRANCHES,CONDENSER WATER LOOP,Condenser Demand,4
   Branch,1,CONDENSER WATER LOOP CONDENSER WATER DEMAND INLET BRANCH,CONDENSER WATER LOOP,Condenser Demand,CONDENSER WATER LOOP CONDENSER WATER DEMAND INLET,CONDENSER WATER LOOP CONDENSER WATER DEMAND INLET PIPE OUTLET
   Branch,2,CHILLER% CONDENSER WATER BRANCH,CONDENSER WATER LOOP,Condenser Demand,CHILLER% CONDENSER WATER INLET,CHILLER% CONDENSER WATER OUTLET
   Branch,3,CONDENSER WATER LOOP CONDENSER WATER DEMAND BYPASS BRANCH,CONDENSER WATER LOOP,Condenser Demand,CONDENSER WATER LOOP CONDENSER WATER DEMAND BYPASS INLET,CONDENSER WATER LOOP CONDENSER WATER DEMAND BYPASS OUTLET
   Branch,4,CONDENSER WATER LOOP CONDENSER WATER DEMAND OUTLET BRANCH,CONDENSER WATER LOOP,Condenser Demand,CONDENSER WATER LOOP CONDENSER WATER DEMAND OUTLET PIPE INLET,CONDENSER WATER LOOP CONDENSER WATER DEMAND OUTLET
 Branch List,5,2ND STORY_A BRANCHES,2ND STORY_A VAV,Air,1
   Branch,1,2ND STORY_A MAIN BRANCH,2ND STORY_A VAV,Air,2ND STORY_A AIR LOOP INLET,2ND STORY_A SUPPLY FAN OUTLET
 Branch List,6,3RD STOREY BRANCHES,3RD STOREY VAV,Air,1
   Branch,1,3RD STOREY MAIN BRANCH,3RD STOREY VAV,Air,3RD STOREY AIR LOOP INLET,3RD STOREY SUPPLY FAN OUTLET
 Branch List,7,3RD STORY_A BRANCHES,3RD STORY_A VAV,Air,1
   Branch,1,3RD STORY_A MAIN BRANCH,3RD STORY_A VAV,Air,3RD STORY_A AIR LOOP INLET,3RD STORY_A SUPPLY FAN OUTLET
 Branch List,8,2ND STOREY BRANCHES,2ND STOREY VAV,Air,1
   Branch,1,2ND STOREY MAIN BRANCH,2ND STOREY VAV,Air,2ND STOREY AIR LOOP INLET,2ND STOREY SUPPLY FAN OUTLET
 Branch List,9,LOWER 1ST STOREY BRANCHES,LOWER 1ST STOREY VAV,Air,1
   Branch,1,LOWER 1ST STOREY MAIN BRANCH,LOWER 1ST STOREY VAV,Air,LOWER 1ST STOREY AIR LOOP INLET,LOWER 1ST STOREY SUPPLY FAN OUTLET
 Branch List,10,1ST STOREY BRANCHES,1ST STOREY VAV,Air,1
   Branch,1,1ST STOREY MAIN BRANCH,1ST STOREY VAV,Air,1ST STOREY AIR LOOP INLET,1ST STOREY SUPPLY FAN OUTLET
! ===============================================================
! <#Supply Air Paths>,<Number of Supply Air Paths>
 #Supply Air Paths,6
! <Supply Air Path>,<Supply Air Path Count>,<Supply Air Path Name>,<AirLoopHVAC Name>
! <#Components on Supply Air Path>,<Number of Components>
! <Supply Air Path Component>,<Component Count>,<Component Type>,<Component Name>,<AirLoopHVAC Name>
! <#Outlet Nodes on Supply Air Path Component>,<Number of Nodes>
! <Supply Air Path Component Nodes>,<Node Count>,<Component Type>,<Component Name>,<Inlet Node Name>,<Outlet Node Name>,<AirLoopHVAC Name>
 Supply Air Path,1,2ND STORY_A SUPPLY PATH,2ND STORY_A VAV
   #Components on Supply Air Path,1
   Supply Air Path Component,1,AIRLOOPHVAC:ZONESPLITTER,2ND STORY_A ZONE SPLITTER,2ND STORY_A VAV
     #Outlet Nodes on Supply Air Path Component,13
     Supply Air Path Component Nodes,1,AIRLOOPHVAC:ZONESPLITTER,2ND STORY_A ZONE SPLITTER,2ND STORY_A SUPPLY PATH INLET,2ND STORY_A:384 ROOM ZONE EQUIP INLET,2ND STORY_A VAV
     Supply Air Path Component Nodes,2,AIRLOOPHVAC:ZONESPLITTER,2ND STORY_A ZONE SPLITTER,2ND STORY_A SUPPLY PATH INLET,2ND STORY_A:359 ROOM ZONE EQUIP INLET,2ND STORY_A VAV
     Supply Air Path Component Nodes,3,AIRLOOPHVAC:ZONESPLITTER,2ND STORY_A ZONE SPLITTER,2ND STORY_A SUPPLY PATH INLET,2ND STORY_A:371 ROOM ZONE EQUIP INLET,2ND STORY_A VAV
     Supply Air Path Component Nodes,4,AIRLOOPHVAC:ZONESPLITTER,2ND STORY_A ZONE SPLITTER,2ND STORY_A SUPPLY PATH INLET,2ND STORY_A:367 ROOM ZONE EQUIP INLET,2ND STORY_A VAV
     Supply Air Path Component Nodes,5,AIRLOOPHVAC:ZONESPLITTER,2ND STORY_A ZONE SPLITTER,2ND STORY_A SUPPLY PATH INLET,2ND STORY_A:370 ROOM ZONE EQUIP INLET,2ND STORY_A VAV
     Supply Air Path Component Nodes,6,AIRLOOPHVAC:ZONESPLITTER,2ND STORY_A ZONE SPLITTER,2ND STORY_A SUPPLY PATH INLET,2ND STORY_A:376 ROOM ZONE EQUIP INLET,2ND STORY_A VAV
     Supply Air Path Component Nodes,7,AIRLOOPHVAC:ZONESPLITTER,2ND STORY_A ZONE SPLITTER,2ND STORY_A SUPPLY PATH INLET,2ND STORY_A:365 ROOM ZONE EQUIP INLET,2ND STORY_A VAV
     Supply Air Path Component Nodes,8,AIRLOOPHVAC:ZONESPLITTER,2ND STORY_A ZONE SPLITTER,2ND STORY_A SUPPLY PATH INLET,2ND STORY_A:385 ROOM ZONE EQUIP INLET,2ND STORY_A VAV
     Supply Air Path Component Nodes,9,AIRLOOPHVAC:ZONESPLITTER,2ND STORY_A ZONE SPLITTER,2ND STORY_A SUPPLY PATH INLET,2ND STORY_A:366 ROOM ZONE EQUIP INLET,2ND STORY_A VAV
     Supply Air Path Component Nodes,10,AIRLOOPHVAC:ZONESPLITTER,2ND STORY_A ZONE SPLITTER,2ND STORY_A SUPPLY PATH INLET,2ND STORY_A:368 ROOM ZONE EQUIP INLET,2ND STORY_A VAV
     Supply Air Path Component Nodes,11,AIRLOOPHVAC:ZONESPLITTER,2ND STORY_A ZONE SPLITTER,2ND STORY_A SUPPLY PATH INLET,2ND STORY_A:369 ROOM ZONE EQUIP INLET,2ND STORY_A VAV
     Supply Air Path Component Nodes,12,AIRLOOPHVAC:ZONESPLITTER,2ND STORY_A ZONE SPLITTER,2ND STORY_A SUPPLY PATH INLET,2ND STORY_A:375 ROOM ZONE EQUIP INLET,2ND STORY_A VAV
     Supply Air Path Component Nodes,13,AIRLOOPHVAC:ZONESPLITTER,2ND STORY_A ZONE SPLITTER,2ND STORY_A SUPPLY PATH INLET,2ND STORY_A:364 ROOM ZONE EQUIP INLET,2ND STORY_A VAV
! <#Nodes on Supply Air Path>,<Number of Nodes>
! <Supply Air Path Node>,<Node Type>,<Node Count>,<Node Name>,<AirLoopHVAC Name>
#Nodes on Supply Air Path,14
   Supply Air Path Node,Inlet Node,1,2ND STORY_A SUPPLY PATH INLET,2ND STORY_A VAV
   Supply Air Path Node,Outlet Node,2,2ND STORY_A:384 ROOM ZONE EQUIP INLET,2ND STORY_A VAV
   Supply Air Path Node,Outlet Node,3,2ND STORY_A:359 ROOM ZONE EQUIP INLET,2ND STORY_A VAV
   Supply Air Path Node,Outlet Node,4,2ND STORY_A:371 ROOM ZONE EQUIP INLET,2ND STORY_A VAV
   Supply Air Path Node,Outlet Node,5,2ND STORY_A:367 ROOM ZONE EQUIP INLET,2ND STORY_A VAV
   Supply Air Path Node,Outlet Node,6,2ND STORY_A:370 ROOM ZONE EQUIP INLET,2ND STORY_A VAV
   Supply Air Path Node,Outlet Node,7,2ND STORY_A:376 ROOM ZONE EQUIP INLET,2ND STORY_A VAV
   Supply Air Path Node,Outlet Node,8,2ND STORY_A:365 ROOM ZONE EQUIP INLET,2ND STORY_A VAV
   Supply Air Path Node,Outlet Node,9,2ND STORY_A:385 ROOM ZONE EQUIP INLET,2ND STORY_A VAV
   Supply Air Path Node,Outlet Node,10,2ND STORY_A:366 ROOM ZONE EQUIP INLET,2ND STORY_A VAV
   Supply Air Path Node,Outlet Node,11,2ND STORY_A:368 ROOM ZONE EQUIP INLET,2ND STORY_A VAV
   Supply Air Path Node,Outlet Node,12,2ND STORY_A:369 ROOM ZONE EQUIP INLET,2ND STORY_A VAV
   Supply Air Path Node,Outlet Node,13,2ND STORY_A:375 ROOM ZONE EQUIP INLET,2ND STORY_A VAV
   Supply Air Path Node,Outlet Node,14,2ND STORY_A:364 ROOM ZONE EQUIP INLET,2ND STORY_A VAV
 Supply Air Path,2,3RD STOREY SUPPLY PATH,3RD STOREY VAV
   #Components on Supply Air Path,1
   Supply Air Path Component,1,AIRLOOPHVAC:ZONESPLITTER,3RD STOREY ZONE SPLITTER,3RD STOREY VAV
     #Outlet Nodes on Supply Air Path Component,26
     Supply Air Path Component Nodes,1,AIRLOOPHVAC:ZONESPLITTER,3RD STOREY ZONE SPLITTER,3RD STOREY SUPPLY PATH INLET,3RD STOREY:415 ROOM ZONE EQUIP INLET,3RD STOREY VAV
     Supply Air Path Component Nodes,2,AIRLOOPHVAC:ZONESPLITTER,3RD STOREY ZONE SPLITTER,3RD STOREY SUPPLY PATH INLET,3RD STOREY:318 ROOM ZONE EQUIP INLET,3RD STOREY VAV
     Supply Air Path Component Nodes,3,AIRLOOPHVAC:ZONESPLITTER,3RD STOREY ZONE SPLITTER,3RD STOREY SUPPLY PATH INLET,3RD STOREY:291 ROOM ZONE EQUIP INLET,3RD STOREY VAV
     Supply Air Path Component Nodes,4,AIRLOOPHVAC:ZONESPLITTER,3RD STOREY ZONE SPLITTER,3RD STOREY SUPPLY PATH INLET,3RD STOREY:320 ROOM ZONE EQUIP INLET,3RD STOREY VAV
     Supply Air Path Component Nodes,5,AIRLOOPHVAC:ZONESPLITTER,3RD STOREY ZONE SPLITTER,3RD STOREY SUPPLY PATH INLET,3RD STOREY:308 ROOM ZONE EQUIP INLET,3RD STOREY VAV
     Supply Air Path Component Nodes,6,AIRLOOPHVAC:ZONESPLITTER,3RD STOREY ZONE SPLITTER,3RD STOREY SUPPLY PATH INLET,3RD STOREY:310 ROOM ZONE EQUIP INLET,3RD STOREY VAV
     Supply Air Path Component Nodes,7,AIRLOOPHVAC:ZONESPLITTER,3RD STOREY ZONE SPLITTER,3RD STOREY SUPPLY PATH INLET,3RD STOREY:309 ROOM ZONE EQUIP INLET,3RD STOREY VAV
     Supply Air Path Component Nodes,8,AIRLOOPHVAC:ZONESPLITTER,3RD STOREY ZONE SPLITTER,3RD STOREY SUPPLY PATH INLET,3RD STOREY:305 ROOM ZONE EQUIP INLET,3RD STOREY VAV
     Supply Air Path Component Nodes,9,AIRLOOPHVAC:ZONESPLITTER,3RD STOREY ZONE SPLITTER,3RD STOREY SUPPLY PATH INLET,3RD STOREY:410 ROOM ZONE EQUIP INLET,3RD STOREY VAV
     Supply Air Path Component Nodes,10,AIRLOOPHVAC:ZONESPLITTER,3RD STOREY ZONE SPLITTER,3RD STOREY SUPPLY PATH INLET,3RD STOREY:319 ROOM ZONE EQUIP INLET,3RD STOREY VAV
     Supply Air Path Component Nodes,11,AIRLOOPHVAC:ZONESPLITTER,3RD STOREY ZONE SPLITTER,3RD STOREY SUPPLY PATH INLET,3RD STOREY:347 ROOM ZONE EQUIP INLET,3RD STOREY VAV
     Supply Air Path Component Nodes,12,AIRLOOPHVAC:ZONESPLITTER,3RD STOREY ZONE SPLITTER,3RD STOREY SUPPLY PATH INLET,3RD STOREY:414 ROOM ZONE EQUIP INLET,3RD STOREY VAV
     Supply Air Path Component Nodes,13,AIRLOOPHVAC:ZONESPLITTER,3RD STOREY ZONE SPLITTER,3RD STOREY SUPPLY PATH INLET,3RD STOREY:298 ROOM ZONE EQUIP INLET,3RD STOREY VAV
     Supply Air Path Component Nodes,14,AIRLOOPHVAC:ZONESPLITTER,3RD STOREY ZONE SPLITTER,3RD STOREY SUPPLY PATH INLET,3RD STOREY:300 ROOM ZONE EQUIP INLET,3RD STOREY VAV
     Supply Air Path Component Nodes,15,AIRLOOPHVAC:ZONESPLITTER,3RD STOREY ZONE SPLITTER,3RD STOREY SUPPLY PATH INLET,3RD STOREY:411 ROOM ZONE EQUIP INLET,3RD STOREY VAV
     Supply Air Path Component Nodes,16,AIRLOOPHVAC:ZONESPLITTER,3RD STOREY ZONE SPLITTER,3RD STOREY SUPPLY PATH INLET,3RD STOREY:293 ROOM ZONE EQUIP INLET,3RD STOREY VAV
     Supply Air Path Component Nodes,17,AIRLOOPHVAC:ZONESPLITTER,3RD STOREY ZONE SPLITTER,3RD STOREY SUPPLY PATH INLET,3RD STOREY:284 ROOM ZONE EQUIP INLET,3RD STOREY VAV
     Supply Air Path Component Nodes,18,AIRLOOPHVAC:ZONESPLITTER,3RD STOREY ZONE SPLITTER,3RD STOREY SUPPLY PATH INLET,3RD STOREY:316 ROOM ZONE EQUIP INLET,3RD STOREY VAV
     Supply Air Path Component Nodes,19,AIRLOOPHVAC:ZONESPLITTER,3RD STOREY ZONE SPLITTER,3RD STOREY SUPPLY PATH INLET,3RD STOREY:283 ROOM ZONE EQUIP INLET,3RD STOREY VAV
     Supply Air Path Component Nodes,20,AIRLOOPHVAC:ZONESPLITTER,3RD STOREY ZONE SPLITTER,3RD STOREY SUPPLY PATH INLET,3RD STOREY:405 ROOM ZONE EQUIP INLET,3RD STOREY VAV
     Supply Air Path Component Nodes,21,AIRLOOPHVAC:ZONESPLITTER,3RD STOREY ZONE SPLITTER,3RD STOREY SUPPLY PATH INLET,3RD STOREY:288 ROOM ZONE EQUIP INLET,3RD STOREY VAV
     Supply Air Path Component Nodes,22,AIRLOOPHVAC:ZONESPLITTER,3RD STOREY ZONE SPLITTER,3RD STOREY SUPPLY PATH INLET,3RD STOREY:426 ROOM ZONE EQUIP INLET,3RD STOREY VAV
     Supply Air Path Component Nodes,23,AIRLOOPHVAC:ZONESPLITTER,3RD STOREY ZONE SPLITTER,3RD STOREY SUPPLY PATH INLET,3RD STOREY:294 ROOM ZONE EQUIP INLET,3RD STOREY VAV
     Supply Air Path Component Nodes,24,AIRLOOPHVAC:ZONESPLITTER,3RD STOREY ZONE SPLITTER,3RD STOREY SUPPLY PATH INLET,3RD STOREY:285 ROOM ZONE EQUIP INLET,3RD STOREY VAV
     Supply Air Path Component Nodes,25,AIRLOOPHVAC:ZONESPLITTER,3RD STOREY ZONE SPLITTER,3RD STOREY SUPPLY PATH INLET,3RD STOREY:302 ROOM ZONE EQUIP INLET,3RD STOREY VAV
     Supply Air Path Component Nodes,26,AIRLOOPHVAC:ZONESPLITTER,3RD STOREY ZONE SPLITTER,3RD STOREY SUPPLY PATH INLET,3RD STOREY:301 ROOM ZONE EQUIP INLET,3RD STOREY VAV
! <#Nodes on Supply Air Path>,<Number of Nodes>
! <Supply Air Path Node>,<Node Type>,<Node Count>,<Node Name>,<AirLoopHVAC Name>
#Nodes on Supply Air Path,27
   Supply Air Path Node,Inlet Node,1,3RD STOREY SUPPLY PATH INLET,3RD STOREY VAV
   Supply Air Path Node,Outlet Node,2,3RD STOREY:415 ROOM ZONE EQUIP INLET,3RD STOREY VAV
   Supply Air Path Node,Outlet Node,3,3RD STOREY:318 ROOM ZONE EQUIP INLET,3RD STOREY VAV
   Supply Air Path Node,Outlet Node,4,3RD STOREY:291 ROOM ZONE EQUIP INLET,3RD STOREY VAV
   Supply Air Path Node,Outlet Node,5,3RD STOREY:320 ROOM ZONE EQUIP INLET,3RD STOREY VAV
   Supply Air Path Node,Outlet Node,6,3RD STOREY:308 ROOM ZONE EQUIP INLET,3RD STOREY VAV
   Supply Air Path Node,Outlet Node,7,3RD STOREY:310 ROOM ZONE EQUIP INLET,3RD STOREY VAV
   Supply Air Path Node,Outlet Node,8,3RD STOREY:309 ROOM ZONE EQUIP INLET,3RD STOREY VAV
   Supply Air Path Node,Outlet Node,9,3RD STOREY:305 ROOM ZONE EQUIP INLET,3RD STOREY VAV
   Supply Air Path Node,Outlet Node,10,3RD STOREY:410 ROOM ZONE EQUIP INLET,3RD STOREY VAV
   Supply Air Path Node,Outlet Node,11,3RD STOREY:319 ROOM ZONE EQUIP INLET,3RD STOREY VAV
   Supply Air Path Node,Outlet Node,12,3RD STOREY:347 ROOM ZONE EQUIP INLET,3RD STOREY VAV
   Supply Air Path Node,Outlet Node,13,3RD STOREY:414 ROOM ZONE EQUIP INLET,3RD STOREY VAV
   Supply Air Path Node,Outlet Node,14,3RD STOREY:298 ROOM ZONE EQUIP INLET,3RD STOREY VAV
   Supply Air Path Node,Outlet Node,15,3RD STOREY:300 ROOM ZONE EQUIP INLET,3RD STOREY VAV
   Supply Air Path Node,Outlet Node,16,3RD STOREY:411 ROOM ZONE EQUIP INLET,3RD STOREY VAV
   Supply Air Path Node,Outlet Node,17,3RD STOREY:293 ROOM ZONE EQUIP INLET,3RD STOREY VAV
   Supply Air Path Node,Outlet Node,18,3RD STOREY:284 ROOM ZONE EQUIP INLET,3RD STOREY VAV
   Supply Air Path Node,Outlet Node,19,3RD STOREY:316 ROOM ZONE EQUIP INLET,3RD STOREY VAV
   Supply Air Path Node,Outlet Node,20,3RD STOREY:283 ROOM ZONE EQUIP INLET,3RD STOREY VAV
   Supply Air Path Node,Outlet Node,21,3RD STOREY:405 ROOM ZONE EQUIP INLET,3RD STOREY VAV
   Supply Air Path Node,Outlet Node,22,3RD STOREY:288 ROOM ZONE EQUIP INLET,3RD STOREY VAV
   Supply Air Path Node,Outlet Node,23,3RD STOREY:426 ROOM ZONE EQUIP INLET,3RD STOREY VAV
   Supply Air Path Node,Outlet Node,24,3RD STOREY:294 ROOM ZONE EQUIP INLET,3RD STOREY VAV
   Supply Air Path Node,Outlet Node,25,3RD STOREY:285 ROOM ZONE EQUIP INLET,3RD STOREY VAV
   Supply Air Path Node,Outlet Node,26,3RD STOREY:302 ROOM ZONE EQUIP INLET,3RD STOREY VAV
   Supply Air Path Node,Outlet Node,27,3RD STOREY:301 ROOM ZONE EQUIP INLET,3RD STOREY VAV
 Supply Air Path,3,3RD STORY_A SUPPLY PATH,3RD STORY_A VAV
   #Components on Supply Air Path,1
   Supply Air Path Component,1,AIRLOOPHVAC:ZONESPLITTER,3RD STORY_A ZONE SPLITTER,3RD STORY_A VAV
     #Outlet Nodes on Supply Air Path Component,9
     Supply Air Path Component Nodes,1,AIRLOOPHVAC:ZONESPLITTER,3RD STORY_A ZONE SPLITTER,3RD STORY_A SUPPLY PATH INLET,3RD STORY_A:419 ROOM ZONE EQUIP INLET,3RD STORY_A VAV
     Supply Air Path Component Nodes,2,AIRLOOPHVAC:ZONESPLITTER,3RD STORY_A ZONE SPLITTER,3RD STORY_A SUPPLY PATH INLET,3RD STORY_A:380 ROOM ZONE EQUIP INLET,3RD STORY_A VAV
     Supply Air Path Component Nodes,3,AIRLOOPHVAC:ZONESPLITTER,3RD STORY_A ZONE SPLITTER,3RD STORY_A SUPPLY PATH INLET,3RD STORY_A:381 ROOM ZONE EQUIP INLET,3RD STORY_A VAV
     Supply Air Path Component Nodes,4,AIRLOOPHVAC:ZONESPLITTER,3RD STORY_A ZONE SPLITTER,3RD STORY_A SUPPLY PATH INLET,3RD STORY_A:382 ROOM ZONE EQUIP INLET,3RD STORY_A VAV
     Supply Air Path Component Nodes,5,AIRLOOPHVAC:ZONESPLITTER,3RD STORY_A ZONE SPLITTER,3RD STORY_A SUPPLY PATH INLET,3RD STORY_A:387 ROOM ZONE EQUIP INLET,3RD STORY_A VAV
     Supply Air Path Component Nodes,6,AIRLOOPHVAC:ZONESPLITTER,3RD STORY_A ZONE SPLITTER,3RD STORY_A SUPPLY PATH INLET,3RD STORY_A:378 ROOM ZONE EQUIP INLET,3RD STORY_A VAV
     Supply Air Path Component Nodes,7,AIRLOOPHVAC:ZONESPLITTER,3RD STORY_A ZONE SPLITTER,3RD STORY_A SUPPLY PATH INLET,3RD STORY_A:377 ROOM ZONE EQUIP INLET,3RD STORY_A VAV
     Supply Air Path Component Nodes,8,AIRLOOPHVAC:ZONESPLITTER,3RD STORY_A ZONE SPLITTER,3RD STORY_A SUPPLY PATH INLET,3RD STORY_A:379 ROOM ZONE EQUIP INLET,3RD STORY_A VAV
     Supply Air Path Component Nodes,9,AIRLOOPHVAC:ZONESPLITTER,3RD STORY_A ZONE SPLITTER,3RD STORY_A SUPPLY PATH INLET,3RD STORY_A:412 ROOM ZONE EQUIP INLET,3RD STORY_A VAV
! <#Nodes on Supply Air Path>,<Number of Nodes>
! <Supply Air Path Node>,<Node Type>,<Node Count>,<Node Name>,<AirLoopHVAC Name>
#Nodes on Supply Air Path,10
   Supply Air Path Node,Inlet Node,1,3RD STORY_A SUPPLY PATH INLET,3RD STORY_A VAV
   Supply Air Path Node,Outlet Node,2,3RD STORY_A:419 ROOM ZONE EQUIP INLET,3RD STORY_A VAV
   Supply Air Path Node,Outlet Node,3,3RD STORY_A:380 ROOM ZONE EQUIP INLET,3RD STORY_A VAV
   Supply Air Path Node,Outlet Node,4,3RD STORY_A:381 ROOM ZONE EQUIP INLET,3RD STORY_A VAV
   Supply Air Path Node,Outlet Node,5,3RD STORY_A:382 ROOM ZONE EQUIP INLET,3RD STORY_A VAV
   Supply Air Path Node,Outlet Node,6,3RD STORY_A:387 ROOM ZONE EQUIP INLET,3RD STORY_A VAV
   Supply Air Path Node,Outlet Node,7,3RD STORY_A:378 ROOM ZONE EQUIP INLET,3RD STORY_A VAV
   Supply Air Path Node,Outlet Node,8,3RD STORY_A:377 ROOM ZONE EQUIP INLET,3RD STORY_A VAV
   Supply Air Path Node,Outlet Node,9,3RD STORY_A:379 ROOM ZONE EQUIP INLET,3RD STORY_A VAV
   Supply Air Path Node,Outlet Node,10,3RD STORY_A:412 ROOM ZONE EQUIP INLET,3RD STORY_A VAV
 Supply Air Path,4,2ND STOREY SUPPLY PATH,2ND STOREY VAV
   #Components on Supply Air Path,1
   Supply Air Path Component,1,AIRLOOPHVAC:ZONESPLITTER,2ND STOREY ZONE SPLITTER,2ND STOREY VAV
     #Outlet Nodes on Supply Air Path Component,29
     Supply Air Path Component Nodes,1,AIRLOOPHVAC:ZONESPLITTER,2ND STOREY ZONE SPLITTER,2ND STOREY SUPPLY PATH INLET,2ND STOREY:197 ROOM ZONE EQUIP INLET,2ND STOREY VAV
     Supply Air Path Component Nodes,2,AIRLOOPHVAC:ZONESPLITTER,2ND STOREY ZONE SPLITTER,2ND STOREY SUPPLY PATH INLET,2ND STOREY:206 ROOM ZONE EQUIP INLET,2ND STOREY VAV
     Supply Air Path Component Nodes,3,AIRLOOPHVAC:ZONESPLITTER,2ND STOREY ZONE SPLITTER,2ND STOREY SUPPLY PATH INLET,2ND STOREY:194 ROOM ZONE EQUIP INLET,2ND STOREY VAV
     Supply Air Path Component Nodes,4,AIRLOOPHVAC:ZONESPLITTER,2ND STOREY ZONE SPLITTER,2ND STOREY SUPPLY PATH INLET,2ND STOREY:392 ROOM ZONE EQUIP INLET,2ND STOREY VAV
     Supply Air Path Component Nodes,5,AIRLOOPHVAC:ZONESPLITTER,2ND STOREY ZONE SPLITTER,2ND STOREY SUPPLY PATH INLET,2ND STOREY:249 ROOM ZONE EQUIP INLET,2ND STOREY VAV
     Supply Air Path Component Nodes,6,AIRLOOPHVAC:ZONESPLITTER,2ND STOREY ZONE SPLITTER,2ND STOREY SUPPLY PATH INLET,2ND STOREY:223 ROOM ZONE EQUIP INLET,2ND STOREY VAV
     Supply Air Path Component Nodes,7,AIRLOOPHVAC:ZONESPLITTER,2ND STOREY ZONE SPLITTER,2ND STOREY SUPPLY PATH INLET,2ND STOREY:169 ROOM ZONE EQUIP INLET,2ND STOREY VAV
     Supply Air Path Component Nodes,8,AIRLOOPHVAC:ZONESPLITTER,2ND STOREY ZONE SPLITTER,2ND STOREY SUPPLY PATH INLET,2ND STOREY:234 ROOM ZONE EQUIP INLET,2ND STOREY VAV
     Supply Air Path Component Nodes,9,AIRLOOPHVAC:ZONESPLITTER,2ND STOREY ZONE SPLITTER,2ND STOREY SUPPLY PATH INLET,2ND STOREY:240 ROOM ZONE EQUIP INLET,2ND STOREY VAV
     Supply Air Path Component Nodes,10,AIRLOOPHVAC:ZONESPLITTER,2ND STOREY ZONE SPLITTER,2ND STOREY SUPPLY PATH INLET,2ND STOREY:252 ROOM ZONE EQUIP INLET,2ND STOREY VAV
     Supply Air Path Component Nodes,11,AIRLOOPHVAC:ZONESPLITTER,2ND STOREY ZONE SPLITTER,2ND STOREY SUPPLY PATH INLET,2ND STOREY:417 ROOM ZONE EQUIP INLET,2ND STOREY VAV
     Supply Air Path Component Nodes,12,AIRLOOPHVAC:ZONESPLITTER,2ND STOREY ZONE SPLITTER,2ND STOREY SUPPLY PATH INLET,2ND STOREY:408 ROOM ZONE EQUIP INLET,2ND STOREY VAV
     Supply Air Path Component Nodes,13,AIRLOOPHVAC:ZONESPLITTER,2ND STOREY ZONE SPLITTER,2ND STOREY SUPPLY PATH INLET,2ND STOREY:342 ROOM ZONE EQUIP INLET,2ND STOREY VAV
     Supply Air Path Component Nodes,14,AIRLOOPHVAC:ZONESPLITTER,2ND STOREY ZONE SPLITTER,2ND STOREY SUPPLY PATH INLET,2ND STOREY:168 ROOM ZONE EQUIP INLET,2ND STOREY VAV
     Supply Air Path Component Nodes,15,AIRLOOPHVAC:ZONESPLITTER,2ND STOREY ZONE SPLITTER,2ND STOREY SUPPLY PATH INLET,2ND STOREY:176 ROOM ZONE EQUIP INLET,2ND STOREY VAV
     Supply Air Path Component Nodes,16,AIRLOOPHVAC:ZONESPLITTER,2ND STOREY ZONE SPLITTER,2ND STOREY SUPPLY PATH INLET,2ND STOREY:209 ROOM ZONE EQUIP INLET,2ND STOREY VAV
     Supply Air Path Component Nodes,17,AIRLOOPHVAC:ZONESPLITTER,2ND STOREY ZONE SPLITTER,2ND STOREY SUPPLY PATH INLET,2ND STOREY:242 ROOM ZONE EQUIP INLET,2ND STOREY VAV
     Supply Air Path Component Nodes,18,AIRLOOPHVAC:ZONESPLITTER,2ND STOREY ZONE SPLITTER,2ND STOREY SUPPLY PATH INLET,2ND STOREY:181 ROOM ZONE EQUIP INLET,2ND STOREY VAV
     Supply Air Path Component Nodes,19,AIRLOOPHVAC:ZONESPLITTER,2ND STOREY ZONE SPLITTER,2ND STOREY SUPPLY PATH INLET,2ND STOREY:245 ROOM ZONE EQUIP INLET,2ND STOREY VAV
     Supply Air Path Component Nodes,20,AIRLOOPHVAC:ZONESPLITTER,2ND STOREY ZONE SPLITTER,2ND STOREY SUPPLY PATH INLET,2ND STOREY:251 ROOM ZONE EQUIP INLET,2ND STOREY VAV
     Supply Air Path Component Nodes,21,AIRLOOPHVAC:ZONESPLITTER,2ND STOREY ZONE SPLITTER,2ND STOREY SUPPLY PATH INLET,2ND STOREY:241 ROOM ZONE EQUIP INLET,2ND STOREY VAV
     Supply Air Path Component Nodes,22,AIRLOOPHVAC:ZONESPLITTER,2ND STOREY ZONE SPLITTER,2ND STOREY SUPPLY PATH INLET,2ND STOREY:167 ROOM ZONE EQUIP INLET,2ND STOREY VAV
     Supply Air Path Component Nodes,23,AIRLOOPHVAC:ZONESPLITTER,2ND STOREY ZONE SPLITTER,2ND STOREY SUPPLY PATH INLET,2ND STOREY:211 ROOM ZONE EQUIP INLET,2ND STOREY VAV
     Supply Air Path Component Nodes,24,AIRLOOPHVAC:ZONESPLITTER,2ND STOREY ZONE SPLITTER,2ND STOREY SUPPLY PATH INLET,2ND STOREY:253 ROOM ZONE EQUIP INLET,2ND STOREY VAV
     Supply Air Path Component Nodes,25,AIRLOOPHVAC:ZONESPLITTER,2ND STOREY ZONE SPLITTER,2ND STOREY SUPPLY PATH INLET,2ND STOREY:195 ROOM ZONE EQUIP INLET,2ND STOREY VAV
     Supply Air Path Component Nodes,26,AIRLOOPHVAC:ZONESPLITTER,2ND STOREY ZONE SPLITTER,2ND STOREY SUPPLY PATH INLET,2ND STOREY:224 ROOM ZONE EQUIP INLET,2ND STOREY VAV
     Supply Air Path Component Nodes,27,AIRLOOPHVAC:ZONESPLITTER,2ND STOREY ZONE SPLITTER,2ND STOREY SUPPLY PATH INLET,2ND STOREY:225 ROOM ZONE EQUIP INLET,2ND STOREY VAV
     Supply Air Path Component Nodes,28,AIRLOOPHVAC:ZONESPLITTER,2ND STOREY ZONE SPLITTER,2ND STOREY SUPPLY PATH INLET,2ND STOREY:173 ROOM ZONE EQUIP INLET,2ND STOREY VAV
     Supply Air Path Component Nodes,29,AIRLOOPHVAC:ZONESPLITTER,2ND STOREY ZONE SPLITTER,2ND STOREY SUPPLY PATH INLET,2ND STOREY:203 ROOM ZONE EQUIP INLET,2ND STOREY VAV
! <#Nodes on Supply Air Path>,<Number of Nodes>
! <Supply Air Path Node>,<Node Type>,<Node Count>,<Node Name>,<AirLoopHVAC Name>
#Nodes on Supply Air Path,30
   Supply Air Path Node,Inlet Node,1,2ND STOREY SUPPLY PATH INLET,2ND STOREY VAV
   Supply Air Path Node,Outlet Node,2,2ND STOREY:197 ROOM ZONE EQUIP INLET,2ND STOREY VAV
   Supply Air Path Node,Outlet Node,3,2ND STOREY:206 ROOM ZONE EQUIP INLET,2ND STOREY VAV
   Supply Air Path Node,Outlet Node,4,2ND STOREY:194 ROOM ZONE EQUIP INLET,2ND STOREY VAV
   Supply Air Path Node,Outlet Node,5,2ND STOREY:392 ROOM ZONE EQUIP INLET,2ND STOREY VAV
   Supply Air Path Node,Outlet Node,6,2ND STOREY:249 ROOM ZONE EQUIP INLET,2ND STOREY VAV
   Supply Air Path Node,Outlet Node,7,2ND STOREY:223 ROOM ZONE EQUIP INLET,2ND STOREY VAV
   Supply Air Path Node,Outlet Node,8,2ND STOREY:169 ROOM ZONE EQUIP INLET,2ND STOREY VAV
   Supply Air Path Node,Outlet Node,9,2ND STOREY:234 ROOM ZONE EQUIP INLET,2ND STOREY VAV
   Supply Air Path Node,Outlet Node,10,2ND STOREY:240 ROOM ZONE EQUIP INLET,2ND STOREY VAV
   Supply Air Path Node,Outlet Node,11,2ND STOREY:252 ROOM ZONE EQUIP INLET,2ND STOREY VAV
   Supply Air Path Node,Outlet Node,12,2ND STOREY:417 ROOM ZONE EQUIP INLET,2ND STOREY VAV
   Supply Air Path Node,Outlet Node,13,2ND STOREY:408 ROOM ZONE EQUIP INLET,2ND STOREY VAV
   Supply Air Path Node,Outlet Node,14,2ND STOREY:342 ROOM ZONE EQUIP INLET,2ND STOREY VAV
   Supply Air Path Node,Outlet Node,15,2ND STOREY:168 ROOM ZONE EQUIP INLET,2ND STOREY VAV
   Supply Air Path Node,Outlet Node,16,2ND STOREY:176 ROOM ZONE EQUIP INLET,2ND STOREY VAV
   Supply Air Path Node,Outlet Node,17,2ND STOREY:209 ROOM ZONE EQUIP INLET,2ND STOREY VAV
   Supply Air Path Node,Outlet Node,18,2ND STOREY:242 ROOM ZONE EQUIP INLET,2ND STOREY VAV
   Supply Air Path Node,Outlet Node,19,2ND STOREY:181 ROOM ZONE EQUIP INLET,2ND STOREY VAV
   Supply Air Path Node,Outlet Node,20,2ND STOREY:245 ROOM ZONE EQUIP INLET,2ND STOREY VAV
   Supply Air Path Node,Outlet Node,21,2ND STOREY:251 ROOM ZONE EQUIP INLET,2ND STOREY VAV
   Supply Air Path Node,Outlet Node,22,2ND STOREY:241 ROOM ZONE EQUIP INLET,2ND STOREY VAV
   Supply Air Path Node,Outlet Node,23,2ND STOREY:167 ROOM ZONE EQUIP INLET,2ND STOREY VAV
   Supply Air Path Node,Outlet Node,24,2ND STOREY:211 ROOM ZONE EQUIP INLET,2ND STOREY VAV
   Supply Air Path Node,Outlet Node,25,2ND STOREY:253 ROOM ZONE EQUIP INLET,2ND STOREY VAV
   Supply Air Path Node,Outlet Node,26,2ND STOREY:195 ROOM ZONE EQUIP INLET,2ND STOREY VAV
   Supply Air Path Node,Outlet Node,27,2ND STOREY:224 ROOM ZONE EQUIP INLET,2ND STOREY VAV
   Supply Air Path Node,Outlet Node,28,2ND STOREY:225 ROOM ZONE EQUIP INLET,2ND STOREY VAV
   Supply Air Path Node,Outlet Node,29,2ND STOREY:173 ROOM ZONE EQUIP INLET,2ND STOREY VAV
   Supply Air Path Node,Outlet Node,30,2ND STOREY:203 ROOM ZONE EQUIP INLET,2ND STOREY VAV
 Supply Air Path,5,LOWER 1ST STOREY SUPPLY PATH,LOWER 1ST STOREY VAV
   #Components on Supply Air Path,1
   Supply Air Path Component,1,AIRLOOPHVAC:ZONESPLITTER,LOWER 1ST STOREY ZONE SPLITTER,LOWER 1ST STOREY VAV
     #Outlet Nodes on Supply Air Path Component,13
     Supply Air Path Component Nodes,1,AIRLOOPHVAC:ZONESPLITTER,LOWER 1ST STOREY ZONE SPLITTER,LOWER 1ST STOREY SUPPLY PATH INLET,LOWER 1ST STOREY:354 ROOM ZONE EQUIP INLET,LOWER 1ST STOREY VAV
     Supply Air Path Component Nodes,2,AIRLOOPHVAC:ZONESPLITTER,LOWER 1ST STOREY ZONE SPLITTER,LOWER 1ST STOREY SUPPLY PATH INLET,LOWER 1ST STOREY:127 ROOM ZONE EQUIP INLET,LOWER 1ST STOREY VAV
     Supply Air Path Component Nodes,3,AIRLOOPHVAC:ZONESPLITTER,LOWER 1ST STOREY ZONE SPLITTER,LOWER 1ST STOREY SUPPLY PATH INLET,LOWER 1ST STOREY:143 ROOM ZONE EQUIP INLET,LOWER 1ST STOREY VAV
     Supply Air Path Component Nodes,4,AIRLOOPHVAC:ZONESPLITTER,LOWER 1ST STOREY ZONE SPLITTER,LOWER 1ST STOREY SUPPLY PATH INLET,LOWER 1ST STOREY:129 ROOM ZONE EQUIP INLET,LOWER 1ST STOREY VAV
     Supply Air Path Component Nodes,5,AIRLOOPHVAC:ZONESPLITTER,LOWER 1ST STOREY ZONE SPLITTER,LOWER 1ST STOREY SUPPLY PATH INLET,LOWER 1ST STOREY:134 ROOM ZONE EQUIP INLET,LOWER 1ST STOREY VAV
     Supply Air Path Component Nodes,6,AIRLOOPHVAC:ZONESPLITTER,LOWER 1ST STOREY ZONE SPLITTER,LOWER 1ST STOREY SUPPLY PATH INLET,LOWER 1ST STOREY:142 ROOM ZONE EQUIP INLET,LOWER 1ST STOREY VAV
     Supply Air Path Component Nodes,7,AIRLOOPHVAC:ZONESPLITTER,LOWER 1ST STOREY ZONE SPLITTER,LOWER 1ST STOREY SUPPLY PATH INLET,LOWER 1ST STOREY:135 ROOM ZONE EQUIP INLET,LOWER 1ST STOREY VAV
     Supply Air Path Component Nodes,8,AIRLOOPHVAC:ZONESPLITTER,LOWER 1ST STOREY ZONE SPLITTER,LOWER 1ST STOREY SUPPLY PATH INLET,LOWER 1ST STOREY:144 ROOM ZONE EQUIP INLET,LOWER 1ST STOREY VAV
     Supply Air Path Component Nodes,9,AIRLOOPHVAC:ZONESPLITTER,LOWER 1ST STOREY ZONE SPLITTER,LOWER 1ST STOREY SUPPLY PATH INLET,LOWER 1ST STOREY:130 ROOM ZONE EQUIP INLET,LOWER 1ST STOREY VAV
     Supply Air Path Component Nodes,10,AIRLOOPHVAC:ZONESPLITTER,LOWER 1ST STOREY ZONE SPLITTER,LOWER 1ST STOREY SUPPLY PATH INLET,LOWER 1ST STOREY:356 ROOM ZONE EQUIP INLET,LOWER 1ST STOREY VAV
     Supply Air Path Component Nodes,11,AIRLOOPHVAC:ZONESPLITTER,LOWER 1ST STOREY ZONE SPLITTER,LOWER 1ST STOREY SUPPLY PATH INLET,LOWER 1ST STOREY:139 ROOM ZONE EQUIP INLET,LOWER 1ST STOREY VAV
     Supply Air Path Component Nodes,12,AIRLOOPHVAC:ZONESPLITTER,LOWER 1ST STOREY ZONE SPLITTER,LOWER 1ST STOREY SUPPLY PATH INLET,LOWER 1ST STOREY:235 ROOM ZONE EQUIP INLET,LOWER 1ST STOREY VAV
     Supply Air Path Component Nodes,13,AIRLOOPHVAC:ZONESPLITTER,LOWER 1ST STOREY ZONE SPLITTER,LOWER 1ST STOREY SUPPLY PATH INLET,LOWER 1ST STOREY:128 ROOM ZONE EQUIP INLET,LOWER 1ST STOREY VAV
! <#Nodes on Supply Air Path>,<Number of Nodes>
! <Supply Air Path Node>,<Node Type>,<Node Count>,<Node Name>,<AirLoopHVAC Name>
#Nodes on Supply Air Path,14
   Supply Air Path Node,Inlet Node,1,LOWER 1ST STOREY SUPPLY PATH INLET,LOWER 1ST STOREY VAV
   Supply Air Path Node,Outlet Node,2,LOWER 1ST STOREY:354 ROOM ZONE EQUIP INLET,LOWER 1ST STOREY VAV
   Supply Air Path Node,Outlet Node,3,LOWER 1ST STOREY:127 ROOM ZONE EQUIP INLET,LOWER 1ST STOREY VAV
   Supply Air Path Node,Outlet Node,4,LOWER 1ST STOREY:143 ROOM ZONE EQUIP INLET,LOWER 1ST STOREY VAV
   Supply Air Path Node,Outlet Node,5,LOWER 1ST STOREY:129 ROOM ZONE EQUIP INLET,LOWER 1ST STOREY VAV
   Supply Air Path Node,Outlet Node,6,LOWER 1ST STOREY:134 ROOM ZONE EQUIP INLET,LOWER 1ST STOREY VAV
   Supply Air Path Node,Outlet Node,7,LOWER 1ST STOREY:142 ROOM ZONE EQUIP INLET,LOWER 1ST STOREY VAV
   Supply Air Path Node,Outlet Node,8,LOWER 1ST STOREY:135 ROOM ZONE EQUIP INLET,LOWER 1ST STOREY VAV
   Supply Air Path Node,Outlet Node,9,LOWER 1ST STOREY:144 ROOM ZONE EQUIP INLET,LOWER 1ST STOREY VAV
   Supply Air Path Node,Outlet Node,10,LOWER 1ST STOREY:130 ROOM ZONE EQUIP INLET,LOWER 1ST STOREY VAV
   Supply Air Path Node,Outlet Node,11,LOWER 1ST STOREY:356 ROOM ZONE EQUIP INLET,LOWER 1ST STOREY VAV
   Supply Air Path Node,Outlet Node,12,LOWER 1ST STOREY:139 ROOM ZONE EQUIP INLET,LOWER 1ST STOREY VAV
   Supply Air Path Node,Outlet Node,13,LOWER 1ST STOREY:235 ROOM ZONE EQUIP INLET,LOWER 1ST STOREY VAV
   Supply Air Path Node,Outlet Node,14,LOWER 1ST STOREY:128 ROOM ZONE EQUIP INLET,LOWER 1ST STOREY VAV
 Supply Air Path,6,1ST STOREY SUPPLY PATH,1ST STOREY VAV
   #Components on Supply Air Path,1
   Supply Air Path Component,1,AIRLOOPHVAC:ZONESPLITTER,1ST STOREY ZONE SPLITTER,1ST STOREY VAV
     #Outlet Nodes on Supply Air Path Component,19
     Supply Air Path Component Nodes,1,AIRLOOPHVAC:ZONESPLITTER,1ST STOREY ZONE SPLITTER,1ST STOREY SUPPLY PATH INLET,1ST STOREY:126 ROOM ZONE EQUIP INLET,1ST STOREY VAV
     Supply Air Path Component Nodes,2,AIRLOOPHVAC:ZONESPLITTER,1ST STOREY ZONE SPLITTER,1ST STOREY SUPPLY PATH INLET,1ST STOREY:420 ROOM ZONE EQUIP INLET,1ST STOREY VAV
     Supply Air Path Component Nodes,3,AIRLOOPHVAC:ZONESPLITTER,1ST STOREY ZONE SPLITTER,1ST STOREY SUPPLY PATH INLET,1ST STOREY:236 ROOM ZONE EQUIP INLET,1ST STOREY VAV
     Supply Air Path Component Nodes,4,AIRLOOPHVAC:ZONESPLITTER,1ST STOREY ZONE SPLITTER,1ST STOREY SUPPLY PATH INLET,1ST STOREY:123 ROOM ZONE EQUIP INLET,1ST STOREY VAV
     Supply Air Path Component Nodes,5,AIRLOOPHVAC:ZONESPLITTER,1ST STOREY ZONE SPLITTER,1ST STOREY SUPPLY PATH INLET,1ST STOREY:44 ROOM ZONE EQUIP INLET,1ST STOREY VAV
     Supply Air Path Component Nodes,6,AIRLOOPHVAC:ZONESPLITTER,1ST STOREY ZONE SPLITTER,1ST STOREY SUPPLY PATH INLET,1ST STOREY:99 ROOM ZONE EQUIP INLET,1ST STOREY VAV
     Supply Air Path Component Nodes,7,AIRLOOPHVAC:ZONESPLITTER,1ST STOREY ZONE SPLITTER,1ST STOREY SUPPLY PATH INLET,1ST STOREY:103 ROOM ZONE EQUIP INLET,1ST STOREY VAV
     Supply Air Path Component Nodes,8,AIRLOOPHVAC:ZONESPLITTER,1ST STOREY ZONE SPLITTER,1ST STOREY SUPPLY PATH INLET,1ST STOREY:34 ROOM ZONE EQUIP INLET,1ST STOREY VAV
     Supply Air Path Component Nodes,9,AIRLOOPHVAC:ZONESPLITTER,1ST STOREY ZONE SPLITTER,1ST STOREY SUPPLY PATH INLET,1ST STOREY:122 ROOM ZONE EQUIP INLET,1ST STOREY VAV
     Supply Air Path Component Nodes,10,AIRLOOPHVAC:ZONESPLITTER,1ST STOREY ZONE SPLITTER,1ST STOREY SUPPLY PATH INLET,1ST STOREY:113 ROOM ZONE EQUIP INLET,1ST STOREY VAV
     Supply Air Path Component Nodes,11,AIRLOOPHVAC:ZONESPLITTER,1ST STOREY ZONE SPLITTER,1ST STOREY SUPPLY PATH INLET,1ST STOREY:125 ROOM ZONE EQUIP INLET,1ST STOREY VAV
     Supply Air Path Component Nodes,12,AIRLOOPHVAC:ZONESPLITTER,1ST STOREY ZONE SPLITTER,1ST STOREY SUPPLY PATH INLET,1ST STOREY:348 ROOM ZONE EQUIP INLET,1ST STOREY VAV
     Supply Air Path Component Nodes,13,AIRLOOPHVAC:ZONESPLITTER,1ST STOREY ZONE SPLITTER,1ST STOREY SUPPLY PATH INLET,1ST STOREY:40 ROOM ZONE EQUIP INLET,1ST STOREY VAV
     Supply Air Path Component Nodes,14,AIRLOOPHVAC:ZONESPLITTER,1ST STOREY ZONE SPLITTER,1ST STOREY SUPPLY PATH INLET,1ST STOREY:98 ROOM ZONE EQUIP INLET,1ST STOREY VAV
     Supply Air Path Component Nodes,15,AIRLOOPHVAC:ZONESPLITTER,1ST STOREY ZONE SPLITTER,1ST STOREY SUPPLY PATH INLET,1ST STOREY:100 ROOM ZONE EQUIP INLET,1ST STOREY VAV
     Supply Air Path Component Nodes,16,AIRLOOPHVAC:ZONESPLITTER,1ST STOREY ZONE SPLITTER,1ST STOREY SUPPLY PATH INLET,1ST STOREY:102 ROOM ZONE EQUIP INLET,1ST STOREY VAV
     Supply Air Path Component Nodes,17,AIRLOOPHVAC:ZONESPLITTER,1ST STOREY ZONE SPLITTER,1ST STOREY SUPPLY PATH INLET,1ST STOREY:33 ROOM ZONE EQUIP INLET,1ST STOREY VAV
     Supply Air Path Component Nodes,18,AIRLOOPHVAC:ZONESPLITTER,1ST STOREY ZONE SPLITTER,1ST STOREY SUPPLY PATH INLET,1ST STOREY:421 ROOM ZONE EQUIP INLET,1ST STOREY VAV
     Supply Air Path Component Nodes,19,AIRLOOPHVAC:ZONESPLITTER,1ST STOREY ZONE SPLITTER,1ST STOREY SUPPLY PATH INLET,1ST STOREY:237 ROOM ZONE EQUIP INLET,1ST STOREY VAV
! <#Nodes on Supply Air Path>,<Number of Nodes>
! <Supply Air Path Node>,<Node Type>,<Node Count>,<Node Name>,<AirLoopHVAC Name>
#Nodes on Supply Air Path,20
   Supply Air Path Node,Inlet Node,1,1ST STOREY SUPPLY PATH INLET,1ST STOREY VAV
   Supply Air Path Node,Outlet Node,2,1ST STOREY:126 ROOM ZONE EQUIP INLET,1ST STOREY VAV
   Supply Air Path Node,Outlet Node,3,1ST STOREY:420 ROOM ZONE EQUIP INLET,1ST STOREY VAV
   Supply Air Path Node,Outlet Node,4,1ST STOREY:236 ROOM ZONE EQUIP INLET,1ST STOREY VAV
   Supply Air Path Node,Outlet Node,5,1ST STOREY:123 ROOM ZONE EQUIP INLET,1ST STOREY VAV
   Supply Air Path Node,Outlet Node,6,1ST STOREY:44 ROOM ZONE EQUIP INLET,1ST STOREY VAV
   Supply Air Path Node,Outlet Node,7,1ST STOREY:99 ROOM ZONE EQUIP INLET,1ST STOREY VAV
   Supply Air Path Node,Outlet Node,8,1ST STOREY:103 ROOM ZONE EQUIP INLET,1ST STOREY VAV
   Supply Air Path Node,Outlet Node,9,1ST STOREY:34 ROOM ZONE EQUIP INLET,1ST STOREY VAV
   Supply Air Path Node,Outlet Node,10,1ST STOREY:122 ROOM ZONE EQUIP INLET,1ST STOREY VAV
   Supply Air Path Node,Outlet Node,11,1ST STOREY:113 ROOM ZONE EQUIP INLET,1ST STOREY VAV
   Supply Air Path Node,Outlet Node,12,1ST STOREY:125 ROOM ZONE EQUIP INLET,1ST STOREY VAV
   Supply Air Path Node,Outlet Node,13,1ST STOREY:348 ROOM ZONE EQUIP INLET,1ST STOREY VAV
   Supply Air Path Node,Outlet Node,14,1ST STOREY:40 ROOM ZONE EQUIP INLET,1ST STOREY VAV
   Supply Air Path Node,Outlet Node,15,1ST STOREY:98 ROOM ZONE EQUIP INLET,1ST STOREY VAV
   Supply Air Path Node,Outlet Node,16,1ST STOREY:100 ROOM ZONE EQUIP INLET,1ST STOREY VAV
   Supply Air Path Node,Outlet Node,17,1ST STOREY:102 ROOM ZONE EQUIP INLET,1ST STOREY VAV
   Supply Air Path Node,Outlet Node,18,1ST STOREY:33 ROOM ZONE EQUIP INLET,1ST STOREY VAV
[...]
 Non-Parent Node Connection,2ND STOREY:194 ROOM SUPPLY INLET,AIRLOOPHVAC:ZONEMIXER,2ND STOREY ZONE MIXER,Inlet,1
 Non-Parent Node Connection,2ND STOREY:392 ROOM SUPPLY INLET,AIRLOOPHVAC:ZONEMIXER,2ND STOREY ZONE MIXER,Inlet,1
 Non-Parent Node Connection,2ND STOREY:249 ROOM SUPPLY INLET,AIRLOOPHVAC:ZONEMIXER,2ND STOREY ZONE MIXER,Inlet,1
 Non-Parent Node Connection,2ND STOREY:223 ROOM SUPPLY INLET,AIRLOOPHVAC:ZONEMIXER,2ND STOREY ZONE MIXER,Inlet,1
 Non-Parent Node Connection,2ND STOREY:169 ROOM SUPPLY INLET,AIRLOOPHVAC:ZONEMIXER,2ND STOREY ZONE MIXER,Inlet,1
 Non-Parent Node Connection,2ND STOREY:234 ROOM SUPPLY INLET,AIRLOOPHVAC:ZONEMIXER,2ND STOREY ZONE MIXER,Inlet,1
 Non-Parent Node Connection,2ND STOREY:240 ROOM SUPPLY INLET,AIRLOOPHVAC:ZONEMIXER,2ND STOREY ZONE MIXER,Inlet,1
 Non-Parent Node Connection,2ND STOREY:252 ROOM SUPPLY INLET,AIRLOOPHVAC:ZONEMIXER,2ND STOREY ZONE MIXER,Inlet,1
 Non-Parent Node Connection,2ND STOREY:417 ROOM SUPPLY INLET,AIRLOOPHVAC:ZONEMIXER,2ND STOREY ZONE MIXER,Inlet,1
 Non-Parent Node Connection,2ND STOREY:408 ROOM SUPPLY INLET,AIRLOOPHVAC:ZONEMIXER,2ND STOREY ZONE MIXER,Inlet,1
 Non-Parent Node Connection,2ND STOREY:342 ROOM SUPPLY INLET,AIRLOOPHVAC:ZONEMIXER,2ND STOREY ZONE MIXER,Inlet,1
 Non-Parent Node Connection,2ND STOREY:168 ROOM SUPPLY INLET,AIRLOOPHVAC:ZONEMIXER,2ND STOREY ZONE MIXER,Inlet,1
 Non-Parent Node Connection,2ND STOREY:176 ROOM SUPPLY INLET,AIRLOOPHVAC:ZONEMIXER,2ND STOREY ZONE MIXER,Inlet,1
 Non-Parent Node Connection,2ND STOREY:209 ROOM SUPPLY INLET,AIRLOOPHVAC:ZONEMIXER,2ND STOREY ZONE MIXER,Inlet,1
 Non-Parent Node Connection,2ND STOREY:242 ROOM SUPPLY INLET,AIRLOOPHVAC:ZONEMIXER,2ND STOREY ZONE MIXER,Inlet,1
 Non-Parent Node Connection,2ND STOREY:181 ROOM SUPPLY INLET,AIRLOOPHVAC:ZONEMIXER,2ND STOREY ZONE MIXER,Inlet,1
 Non-Parent Node Connection,2ND STOREY:245 ROOM SUPPLY INLET,AIRLOOPHVAC:ZONEMIXER,2ND STOREY ZONE MIXER,Inlet,1
 Non-Parent Node Connection,2ND STOREY:251 ROOM SUPPLY INLET,AIRLOOPHVAC:ZONEMIXER,2ND STOREY ZONE MIXER,Inlet,1
 Non-Parent Node Connection,2ND STOREY:241 ROOM SUPPLY INLET,AIRLOOPHVAC:ZONEMIXER,2ND STOREY ZONE MIXER,Inlet,1
 Non-Parent Node Connection,2ND STOREY:167 ROOM SUPPLY INLET,AIRLOOPHVAC:ZONEMIXER,2ND STOREY ZONE MIXER,Inlet,1
 Non-Parent Node Connection,2ND STOREY:211 ROOM SUPPLY INLET,AIRLOOPHVAC:ZONEMIXER,2ND STOREY ZONE MIXER,Inlet,1
 Non-Parent Node Connection,2ND STOREY:253 ROOM SUPPLY INLET,AIRLOOPHVAC:ZONEMIXER,2ND STOREY ZONE MIXER,Inlet,1
 Non-Parent Node Connection,2ND STOREY:195 ROOM SUPPLY INLET,AIRLOOPHVAC:ZONEMIXER,2ND STOREY ZONE MIXER,Inlet,1
 Non-Parent Node Connection,2ND STOREY:224 ROOM SUPPLY INLET,AIRLOOPHVAC:ZONEMIXER,2ND STOREY ZONE MIXER,Inlet,1
 Non-Parent Node Connection,2ND STOREY:225 ROOM SUPPLY INLET,AIRLOOPHVAC:ZONEMIXER,2ND STOREY ZONE MIXER,Inlet,1
 Non-Parent Node Connection,2ND STOREY:173 ROOM SUPPLY INLET,AIRLOOPHVAC:ZONEMIXER,2ND STOREY ZONE MIXER,Inlet,1
 Non-Parent Node Connection,2ND STOREY:203 ROOM SUPPLY INLET,AIRLOOPHVAC:ZONEMIXER,2ND STOREY ZONE MIXER,Inlet,1
 Non-Parent Node Connection,LOWER 1ST STOREY RETURN AIR OUTLET,AIRLOOPHVAC:ZONEMIXER,LOWER 1ST STOREY ZONE MIXER,Outlet,1
 Non-Parent Node Connection,LOWER 1ST STOREY:354 ROOM SUPPLY INLET,AIRLOOPHVAC:ZONEMIXER,LOWER 1ST STOREY ZONE MIXER,Inlet,1
 Non-Parent Node Connection,LOWER 1ST STOREY:127 ROOM SUPPLY INLET,AIRLOOPHVAC:ZONEMIXER,LOWER 1ST STOREY ZONE MIXER,Inlet,1
 Non-Parent Node Connection,LOWER 1ST STOREY:143 ROOM SUPPLY INLET,AIRLOOPHVAC:ZONEMIXER,LOWER 1ST STOREY ZONE MIXER,Inlet,1
 Non-Parent Node Connection,LOWER 1ST STOREY:129 ROOM SUPPLY INLET,AIRLOOPHVAC:ZONEMIXER,LOWER 1ST STOREY ZONE MIXER,Inlet,1
 Non-Parent Node Connection,LOWER 1ST STOREY:134 ROOM SUPPLY INLET,AIRLOOPHVAC:ZONEMIXER,LOWER 1ST STOREY ZONE MIXER,Inlet,1
 Non-Parent Node Connection,LOWER 1ST STOREY:142 ROOM SUPPLY INLET,AIRLOOPHVAC:ZONEMIXER,LOWER 1ST STOREY ZONE MIXER,Inlet,1
 Non-Parent Node Connection,LOWER 1ST STOREY:135 ROOM SUPPLY INLET,AIRLOOPHVAC:ZONEMIXER,LOWER 1ST STOREY ZONE MIXER,Inlet,1
 Non-Parent Node Connection,LOWER 1ST STOREY:144 ROOM SUPPLY INLET,AIRLOOPHVAC:ZONEMIXER,LOWER 1ST STOREY ZONE MIXER,Inlet,1
 Non-Parent Node Connection,LOWER 1ST STOREY:130 ROOM SUPPLY INLET,AIRLOOPHVAC:ZONEMIXER,LOWER 1ST STOREY ZONE MIXER,Inlet,1
 Non-Parent Node Connection,LOWER 1ST STOREY:356 ROOM SUPPLY INLET,AIRLOOPHVAC:ZONEMIXER,LOWER 1ST STOREY ZONE MIXER,Inlet,1
 Non-Parent Node Connection,LOWER 1ST STOREY:139 ROOM SUPPLY INLET,AIRLOOPHVAC:ZONEMIXER,LOWER 1ST STOREY ZONE MIXER,Inlet,1
 Non-Parent Node Connection,LOWER 1ST STOREY:235 ROOM SUPPLY INLET,AIRLOOPHVAC:ZONEMIXER,LOWER 1ST STOREY ZONE MIXER,Inlet,1
 Non-Parent Node Connection,LOWER 1ST STOREY:128 ROOM SUPPLY INLET,AIRLOOPHVAC:ZONEMIXER,LOWER 1ST STOREY ZONE MIXER,Inlet,1
 Non-Parent Node Connection,1ST STOREY RETURN AIR OUTLET,AIRLOOPHVAC:ZONEMIXER,1ST STOREY ZONE MIXER,Outlet,1
 Non-Parent Node Connection,1ST STOREY:126 ROOM SUPPLY INLET,AIRLOOPHVAC:ZONEMIXER,1ST STOREY ZONE MIXER,Inlet,1
 Non-Parent Node Connection,1ST STOREY:420 ROOM SUPPLY INLET,AIRLOOPHVAC:ZONEMIXER,1ST STOREY ZONE MIXER,Inlet,1
 Non-Parent Node Connection,1ST STOREY:236 ROOM SUPPLY INLET,AIRLOOPHVAC:ZONEMIXER,1ST STOREY ZONE MIXER,Inlet,1
 Non-Parent Node Connection,1ST STOREY:123 ROOM SUPPLY INLET,AIRLOOPHVAC:ZONEMIXER,1ST STOREY ZONE MIXER,Inlet,1
 Non-Parent Node Connection,1ST STOREY:44 ROOM SUPPLY INLET,AIRLOOPHVAC:ZONEMIXER,1ST STOREY ZONE MIXER,Inlet,1
 Non-Parent Node Connection,1ST STOREY:99 ROOM SUPPLY INLET,AIRLOOPHVAC:ZONEMIXER,1ST STOREY ZONE MIXER,Inlet,1
 Non-Parent Node Connection,1ST STOREY:103 ROOM SUPPLY INLET,AIRLOOPHVAC:ZONEMIXER,1ST STOREY ZONE MIXER,Inlet,1
 Non-Parent Node Connection,1ST STOREY:34 ROOM SUPPLY INLET,AIRLOOPHVAC:ZONEMIXER,1ST STOREY ZONE MIXER,Inlet,1
 Non-Parent Node Connection,1ST STOREY:122 ROOM SUPPLY INLET,AIRLOOPHVAC:ZONEMIXER,1ST STOREY ZONE MIXER,Inlet,1
 Non-Parent Node Connection,1ST STOREY:113 ROOM SUPPLY INLET,AIRLOOPHVAC:ZONEMIXER,1ST STOREY ZONE MIXER,Inlet,1
 Non-Parent Node Connection,1ST STOREY:125 ROOM SUPPLY INLET,AIRLOOPHVAC:ZONEMIXER,1ST STOREY ZONE MIXER,Inlet,1
 Non-Parent Node Connection,1ST STOREY:348 ROOM SUPPLY INLET,AIRLOOPHVAC:ZONEMIXER,1ST STOREY ZONE MIXER,Inlet,1
 Non-Parent Node Connection,1ST STOREY:40 ROOM SUPPLY INLET,AIRLOOPHVAC:ZONEMIXER,1ST STOREY ZONE MIXER,Inlet,1
 Non-Parent Node Connection,1ST STOREY:98 ROOM SUPPLY INLET,AIRLOOPHVAC:ZONEMIXER,1ST STOREY ZONE MIXER,Inlet,1
 Non-Parent Node Connection,1ST STOREY:100 ROOM SUPPLY INLET,AIRLOOPHVAC:ZONEMIXER,1ST STOREY ZONE MIXER,Inlet,1
 Non-Parent Node Connection,1ST STOREY:102 ROOM SUPPLY INLET,AIRLOOPHVAC:ZONEMIXER,1ST STOREY ZONE MIXER,Inlet,1
 Non-Parent Node Connection,1ST STOREY:33 ROOM SUPPLY INLET,AIRLOOPHVAC:ZONEMIXER,1ST STOREY ZONE MIXER,Inlet,1
 Non-Parent Node Connection,1ST STOREY:421 ROOM SUPPLY INLET,AIRLOOPHVAC:ZONEMIXER,1ST STOREY ZONE MIXER,Inlet,1
 Non-Parent Node Connection,1ST STOREY:237 ROOM SUPPLY INLET,AIRLOOPHVAC:ZONEMIXER,1ST STOREY ZONE MIXER,Inlet,1
 Non-Parent Node Connection,2ND STORY_A MIXED AIR OUTLET,OUTDOORAIR:MIXER,2ND STORY_A OA MIXING BOX,Outlet,1
 Non-Parent Node Connection,2ND STORY_A OUTSIDE AIR INLET,OUTDOORAIR:MIXER,2ND STORY_A OA MIXING BOX,Inlet,1
 Non-Parent Node Connection,2ND STORY_A RELIEF AIR OUTLET,OUTDOORAIR:MIXER,2ND STORY_A OA MIXING BOX,ReliefAir,1
 Non-Parent Node Connection,2ND STORY_A AIR LOOP INLET,OUTDOORAIR:MIXER,2ND STORY_A OA MIXING BOX,Inlet,1
 Non-Parent Node Connection,3RD STOREY MIXED AIR OUTLET,OUTDOORAIR:MIXER,3RD STOREY OA MIXING BOX,Outlet,1
 Non-Parent Node Connection,3RD STOREY OUTSIDE AIR INLET,OUTDOORAIR:MIXER,3RD STOREY OA MIXING BOX,Inlet,1
 Non-Parent Node Connection,3RD STOREY RELIEF AIR OUTLET,OUTDOORAIR:MIXER,3RD STOREY OA MIXING BOX,ReliefAir,1
 Non-Parent Node Connection,3RD STOREY AIR LOOP INLET,OUTDOORAIR:MIXER,3RD STOREY OA MIXING BOX,Inlet,1
 Non-Parent Node Connection,3RD STORY_A MIXED AIR OUTLET,OUTDOORAIR:MIXER,3RD STORY_A OA MIXING BOX,Outlet,1
 Non-Parent Node Connection,3RD STORY_A OUTSIDE AIR INLET,OUTDOORAIR:MIXER,3RD STORY_A OA MIXING BOX,Inlet,1
 Non-Parent Node Connection,3RD STORY_A RELIEF AIR OUTLET,OUTDOORAIR:MIXER,3RD STORY_A OA MIXING BOX,ReliefAir,1
 Non-Parent Node Connection,3RD STORY_A AIR LOOP INLET,OUTDOORAIR:MIXER,3RD STORY_A OA MIXING BOX,Inlet,1
 Non-Parent Node Connection,2ND STOREY MIXED AIR OUTLET,OUTDOORAIR:MIXER,2ND STOREY OA MIXING BOX,Outlet,1
 Non-Parent Node Connection,2ND STOREY OUTSIDE AIR INLET,OUTDOORAIR:MIXER,2ND STOREY OA MIXING BOX,Inlet,1
 Non-Parent Node Connection,2ND STOREY RELIEF AIR OUTLET,OUTDOORAIR:MIXER,2ND STOREY OA MIXING BOX,ReliefAir,1
 Non-Parent Node Connection,2ND STOREY AIR LOOP INLET,OUTDOORAIR:MIXER,2ND STOREY OA MIXING BOX,Inlet,1
 Non-Parent Node Connection,LOWER 1ST STOREY MIXED AIR OUTLET,OUTDOORAIR:MIXER,LOWER 1ST STOREY OA MIXING BOX,Outlet,1
 Non-Parent Node Connection,LOWER 1ST STOREY OUTSIDE AIR INLET,OUTDOORAIR:MIXER,LOWER 1ST STOREY OA MIXING BOX,Inlet,1
 Non-Parent Node Connection,LOWER 1ST STOREY RELIEF AIR OUTLET,OUTDOORAIR:MIXER,LOWER 1ST STOREY OA MIXING BOX,ReliefAir,1
 Non-Parent Node Connection,LOWER 1ST STOREY AIR LOOP INLET,OUTDOORAIR:MIXER,LOWER 1ST STOREY OA MIXING BOX,Inlet,1
 Non-Parent Node Connection,1ST STOREY MIXED AIR OUTLET,OUTDOORAIR:MIXER,1ST STOREY OA MIXING BOX,Outlet,1
 Non-Parent Node Connection,1ST STOREY OUTSIDE AIR INLET,OUTDOORAIR:MIXER,1ST STOREY OA MIXING BOX,Inlet,1
 Non-Parent Node Connection,1ST STOREY RELIEF AIR OUTLET,OUTDOORAIR:MIXER,1ST STOREY OA MIXING BOX,ReliefAir,1
 Non-Parent Node Connection,1ST STOREY AIR LOOP INLET,OUTDOORAIR:MIXER,1ST STOREY OA MIXING BOX,Inlet,1
 Non-Parent Node Connection,2ND STORY_A COOLING COIL CHILLED WATER INLET,COIL:COOLING:WATER,2ND STORY_A COOLING COIL,Inlet,2
 Non-Parent Node Connection,2ND STORY_A COOLING COIL CHILLED WATER OUTLET,COIL:COOLING:WATER,2ND STORY_A COOLING COIL,Outlet,2
 Non-Parent Node Connection,2ND STORY_A MIXED AIR OUTLET,COIL:COOLING:WATER,2ND STORY_A COOLING COIL,Inlet,1
 Non-Parent Node Connection,2ND STORY_A COOLING COIL OUTLET,COIL:COOLING:WATER,2ND STORY_A COOLING COIL,Outlet,1
 Non-Parent Node Connection,3RD STOREY COOLING COIL CHILLED WATER INLET,COIL:COOLING:WATER,3RD STOREY COOLING COIL,Inlet,2
 Non-Parent Node Connection,3RD STOREY COOLING COIL CHILLED WATER OUTLET,COIL:COOLING:WATER,3RD STOREY COOLING COIL,Outlet,2
 Non-Parent Node Connection,3RD STOREY MIXED AIR OUTLET,COIL:COOLING:WATER,3RD STOREY COOLING COIL,Inlet,1
 Non-Parent Node Connection,3RD STOREY COOLING COIL OUTLET,COIL:COOLING:WATER,3RD STOREY COOLING COIL,Outlet,1
 Non-Parent Node Connection,3RD STORY_A COOLING COIL CHILLED WATER INLET,COIL:COOLING:WATER,3RD STORY_A COOLING COIL,Inlet,2
 Non-Parent Node Connection,3RD STORY_A COOLING COIL CHILLED WATER OUTLET,COIL:COOLING:WATER,3RD STORY_A COOLING COIL,Outlet,2
 Non-Parent Node Connection,3RD STORY_A MIXED AIR OUTLET,COIL:COOLING:WATER,3RD STORY_A COOLING COIL,Inlet,1
 Non-Parent Node Connection,3RD STORY_A COOLING COIL OUTLET,COIL:COOLING:WATER,3RD STORY_A COOLING COIL,Outlet,1
 Non-Parent Node Connection,2ND STOREY COOLING COIL CHILLED WATER INLET,COIL:COOLING:WATER,2ND STOREY COOLING COIL,Inlet,2
 Non-Parent Node Connection,2ND STOREY COOLING COIL CHILLED WATER OUTLET,COIL:COOLING:WATER,2ND STOREY COOLING COIL,Outlet,2
 Non-Parent Node Connection,2ND STOREY MIXED AIR OUTLET,COIL:COOLING:WATER,2ND STOREY COOLING COIL,Inlet,1
 Non-Parent Node Connection,2ND STOREY COOLING COIL OUTLET,COIL:COOLING:WATER,2ND STOREY COOLING COIL,Outlet,1
 Non-Parent Node Connection,LOWER 1ST STOREY COOLING COIL CHILLED WATER INLET,COIL:COOLING:WATER,LOWER 1ST STOREY COOLING COIL,Inlet,2
 Non-Parent Node Connection,LOWER 1ST STOREY COOLING COIL CHILLED WATER OUTLET,COIL:COOLING:WATER,LOWER 1ST STOREY COOLING COIL,Outlet,2
 Non-Parent Node Connection,LOWER 1ST STOREY MIXED AIR OUTLET,COIL:COOLING:WATER,LOWER 1ST STOREY COOLING COIL,Inlet,1
 Non-Parent Node Connection,LOWER 1ST STOREY COOLING COIL OUTLET,COIL:COOLING:WATER,LOWER 1ST STOREY COOLING COIL,Outlet,1
 Non-Parent Node Connection,1ST STOREY COOLING COIL CHILLED WATER INLET,COIL:COOLING:WATER,1ST STOREY COOLING COIL,Inlet,2
 Non-Parent Node Connection,1ST STOREY COOLING COIL CHILLED WATER OUTLET,COIL:COOLING:WATER,1ST STOREY COOLING COIL,Outlet,2
 Non-Parent Node Connection,1ST STOREY MIXED AIR OUTLET,COIL:COOLING:WATER,1ST STOREY COOLING COIL,Inlet,1
 Non-Parent Node Connection,1ST STOREY COOLING COIL OUTLET,COIL:COOLING:WATER,1ST STOREY COOLING COIL,Outlet,1
 Non-Parent Node Connection,2ND STORY_A COOLING COIL OUTLET,CONTROLLER:WATERCOIL,2ND STORY_A COOLING COIL CONTROLLER,Sensor,1
 Non-Parent Node Connection,2ND STORY_A COOLING COIL CHILLED WATER INLET,CONTROLLER:WATERCOIL,2ND STORY_A COOLING COIL CONTROLLER,Actuator,1
 Non-Parent Node Connection,3RD STOREY COOLING COIL OUTLET,CONTROLLER:WATERCOIL,3RD STOREY COOLING COIL CONTROLLER,Sensor,1
 Non-Parent Node Connection,3RD STOREY COOLING COIL CHILLED WATER INLET,CONTROLLER:WATERCOIL,3RD STOREY COOLING COIL CONTROLLER,Actuator,1
 Non-Parent Node Connection,3RD STORY_A COOLING COIL OUTLET,CONTROLLER:WATERCOIL,3RD STORY_A COOLING COIL CONTROLLER,Sensor,1
 Non-Parent Node Connection,3RD STORY_A COOLING COIL CHILLED WATER INLET,CONTROLLER:WATERCOIL,3RD STORY_A COOLING COIL CONTROLLER,Actuator,1
 Non-Parent Node Connection,2ND STOREY COOLING COIL OUTLET,CONTROLLER:WATERCOIL,2ND STOREY COOLING COIL CONTROLLER,Sensor,1
 Non-Parent Node Connection,2ND STOREY COOLING COIL CHILLED WATER INLET,CONTROLLER:WATERCOIL,2ND STOREY COOLING COIL CONTROLLER,Actuator,1
 Non-Parent Node Connection,LOWER 1ST STOREY COOLING COIL OUTLET,CONTROLLER:WATERCOIL,LOWER 1ST STOREY COOLING COIL CONTROLLER,Sensor,1
 Non-Parent Node Connection,LOWER 1ST STOREY COOLING COIL CHILLED WATER INLET,CONTROLLER:WATERCOIL,LOWER 1ST STOREY COOLING COIL CONTROLLER,Actuator,1
 Non-Parent Node Connection,1ST STOREY COOLING COIL OUTLET,CONTROLLER:WATERCOIL,1ST STOREY COOLING COIL CONTROLLER,Sensor,1
 Non-Parent Node Connection,1ST STOREY COOLING COIL CHILLED WATER INLET,CONTROLLER:WATERCOIL,1ST STOREY COOLING COIL CONTROLLER,Actuator,1
 Non-Parent Node Connection,2ND STORY_A COOLING COIL OUTLET,FAN:VARIABLEVOLUME,2ND STORY_A SUPPLY FAN,Inlet,1
 Non-Parent Node Connection,2ND STORY_A SUPPLY FAN OUTLET,FAN:VARIABLEVOLUME,2ND STORY_A SUPPLY FAN,Outlet,1
 Non-Parent Node Connection,3RD STOREY COOLING COIL OUTLET,FAN:VARIABLEVOLUME,3RD STOREY SUPPLY FAN,Inlet,1
 Non-Parent Node Connection,3RD STOREY SUPPLY FAN OUTLET,FAN:VARIABLEVOLUME,3RD STOREY SUPPLY FAN,Outlet,1
 Non-Parent Node Connection,3RD STORY_A COOLING COIL OUTLET,FAN:VARIABLEVOLUME,3RD STORY_A SUPPLY FAN,Inlet,1
 Non-Parent Node Connection,3RD STORY_A SUPPLY FAN OUTLET,FAN:VARIABLEVOLUME,3RD STORY_A SUPPLY FAN,Outlet,1
 Non-Parent Node Connection,2ND STOREY COOLING COIL OUTLET,FAN:VARIABLEVOLUME,2ND STOREY SUPPLY FAN,Inlet,1
 Non-Parent Node Connection,2ND STOREY SUPPLY FAN OUTLET,FAN:VARIABLEVOLUME,2ND STOREY SUPPLY FAN,Outlet,1
 Non-Parent Node Connection,LOWER 1ST STOREY COOLING COIL OUTLET,FAN:VARIABLEVOLUME,LOWER 1ST STOREY SUPPLY FAN,Inlet,1
 Non-Parent Node Connection,LOWER 1ST STOREY SUPPLY FAN OUTLET,FAN:VARIABLEVOLUME,LOWER 1ST STOREY SUPPLY FAN,Outlet,1
 Non-Parent Node Connection,1ST STOREY COOLING COIL OUTLET,FAN:VARIABLEVOLUME,1ST STOREY SUPPLY FAN,Inlet,1
 Non-Parent Node Connection,1ST STOREY SUPPLY FAN OUTLET,FAN:VARIABLEVOLUME,1ST STOREY SUPPLY FAN,Outlet,1
 Non-Parent Node Connection,2ND STORY_A MIXED AIR OUTLET,CONTROLLER:OUTDOORAIR,2ND STORY_A OA CONTROLLER,Sensor,1
 Non-Parent Node Connection,2ND STORY_A OUTSIDE AIR INLET,CONTROLLER:OUTDOORAIR,2ND STORY_A OA CONTROLLER,Actuator,1
 Non-Parent Node Connection,2ND STORY_A RELIEF AIR OUTLET,CONTROLLER:OUTDOORAIR,2ND STORY_A OA CONTROLLER,Actuator,1
 Non-Parent Node Connection,2ND STORY_A AIR LOOP INLET,CONTROLLER:OUTDOORAIR,2ND STORY_A OA CONTROLLER,Sensor,1
 Non-Parent Node Connection,3RD STOREY MIXED AIR OUTLET,CONTROLLER:OUTDOORAIR,3RD STOREY OA CONTROLLER,Sensor,1
 Non-Parent Node Connection,3RD STOREY OUTSIDE AIR INLET,CONTROLLER:OUTDOORAIR,3RD STOREY OA CONTROLLER,Actuator,1
 Non-Parent Node Connection,3RD STOREY RELIEF AIR OUTLET,CONTROLLER:OUTDOORAIR,3RD STOREY OA CONTROLLER,Actuator,1
 Non-Parent Node Connection,3RD STOREY AIR LOOP INLET,CONTROLLER:OUTDOORAIR,3RD STOREY OA CONTROLLER,Sensor,1
 Non-Parent Node Connection,3RD STORY_A MIXED AIR OUTLET,CONTROLLER:OUTDOORAIR,3RD STORY_A OA CONTROLLER,Sensor,1
 Non-Parent Node Connection,3RD STORY_A OUTSIDE AIR INLET,CONTROLLER:OUTDOORAIR,3RD STORY_A OA CONTROLLER,Actuator,1
 Non-Parent Node Connection,3RD STORY_A RELIEF AIR OUTLET,CONTROLLER:OUTDOORAIR,3RD STORY_A OA CONTROLLER,Actuator,1
 Non-Parent Node Connection,3RD STORY_A AIR LOOP INLET,CONTROLLER:OUTDOORAIR,3RD STORY_A OA CONTROLLER,Sensor,1
 Non-Parent Node Connection,2ND STOREY MIXED AIR OUTLET,CONTROLLER:OUTDOORAIR,2ND STOREY OA CONTROLLER,Sensor,1
 Non-Parent Node Connection,2ND STOREY OUTSIDE AIR INLET,CONTROLLER:OUTDOORAIR,2ND STOREY OA CONTROLLER,Actuator,1
 Non-Parent Node Connection,2ND STOREY RELIEF AIR OUTLET,CONTROLLER:OUTDOORAIR,2ND STOREY OA CONTROLLER,Actuator,1
 Non-Parent Node Connection,2ND STOREY AIR LOOP INLET,CONTROLLER:OUTDOORAIR,2ND STOREY OA CONTROLLER,Sensor,1
 Non-Parent Node Connection,LOWER 1ST STOREY MIXED AIR OUTLET,CONTROLLER:OUTDOORAIR,LOWER 1ST STOREY OA CONTROLLER,Sensor,1
 Non-Parent Node Connection,LOWER 1ST STOREY OUTSIDE AIR INLET,CONTROLLER:OUTDOORAIR,LOWER 1ST STOREY OA CONTROLLER,Actuator,1
 Non-Parent Node Connection,LOWER 1ST STOREY RELIEF AIR OUTLET,CONTROLLER:OUTDOORAIR,LOWER 1ST STOREY OA CONTROLLER,Actuator,1
 Non-Parent Node Connection,LOWER 1ST STOREY AIR LOOP INLET,CONTROLLER:OUTDOORAIR,LOWER 1ST STOREY OA CONTROLLER,Sensor,1
 Non-Parent Node Connection,1ST STOREY MIXED AIR OUTLET,CONTROLLER:OUTDOORAIR,1ST STOREY OA CONTROLLER,Sensor,1
 Non-Parent Node Connection,1ST STOREY OUTSIDE AIR INLET,CONTROLLER:OUTDOORAIR,1ST STOREY OA CONTROLLER,Actuator,1
 Non-Parent Node Connection,1ST STOREY RELIEF AIR OUTLET,CONTROLLER:OUTDOORAIR,1ST STOREY OA CONTROLLER,Actuator,1
 Non-Parent Node Connection,1ST STOREY AIR LOOP INLET,CONTROLLER:OUTDOORAIR,1ST STOREY OA CONTROLLER,Sensor,1
 Non-Parent Node Connection,CHILLER% CHILLED WATER INLET,CHILLER:ELECTRIC:EIR,CHILLER%,Inlet,1
 Non-Parent Node Connection,CHILLER% CHILLED WATER OUTLET,CHILLER:ELECTRIC:EIR,CHILLER%,Outlet,1
 Non-Parent Node Connection,CHILLER% CONDENSER WATER INLET,CHILLER:ELECTRIC:EIR,CHILLER%,Inlet,2
 Non-Parent Node Connection,CHILLER% CONDENSER WATER OUTLET,CHILLER:ELECTRIC:EIR,CHILLER%,Outlet,2
 Non-Parent Node Connection,TOWER% CONDENSER WATER INLET,COOLINGTOWER:TWOSPEED,TOWER%,Inlet,1
 Non-Parent Node Connection,TOWER% CONDENSER WATER OUTLET,COOLINGTOWER:TWOSPEED,TOWER%,Outlet,1
 Non-Parent Node Connection,TOWER% COOLING TOWER OUTDOOR AIR INLET NODE,COOLINGTOWER:TWOSPEED,TOWER%,OutsideAirReference,1
 Non-Parent Node Connection,CHILLED WATER LOOP CHILLED WATER SUPPLY INLET,PUMP:VARIABLESPEED,CHILLED WATER LOOP CHILLED WATER PRIMARY SUPPLY PUMP,Inlet,1
 Non-Parent Node Connection,CHILLED WATER LOOP CHILLED WATER PRIMARY PUMP OUTLET,PUMP:VARIABLESPEED,CHILLED WATER LOOP CHILLED WATER PRIMARY SUPPLY PUMP,Outlet,1
 Non-Parent Node Connection,CHILLED WATER LOOP CHILLED WATER DEMAND INLET,PUMP:VARIABLESPEED,CHILLED WATER LOOP CHILLED WATER SECONDARY PUMP,Inlet,1
 Non-Parent Node Connection,CHILLED WATER LOOP CHILLED WATER SECONDARY PUMP OUTLET,PUMP:VARIABLESPEED,CHILLED WATER LOOP CHILLED WATER SECONDARY PUMP,Outlet,1
 Non-Parent Node Connection,CONDENSER WATER LOOP CONDENSER WATER SUPPLY INLET,PUMP:VARIABLESPEED,CONDENSER WATER LOOP CONDENSER WATER SUPPLY PUMP,Inlet,1
 Non-Parent Node Connection,CONDENSER WATER LOOP CONDENSER WATER PUMP OUTLET,PUMP:VARIABLESPEED,CONDENSER WATER LOOP CONDENSER WATER SUPPLY PUMP,Outlet,1
